# DDEC6 charges by PACMAN v1.1 (https://github.com/mtap-research/PACMAN-charge/)
data_ZOFZIF_ASR_pacman
_symmetry_space_group_name_H-M   'P 1'
_cell_length_a   19.19990000
_cell_length_b   19.19990000
_cell_length_c   25.81500000
_cell_angle_alpha   90.00000000
_cell_angle_beta   90.00000000
_cell_angle_gamma   90.00000000
_symmetry_Int_Tables_number   1
_chemical_formula_structural   Mn2H7C18N3O8
_chemical_formula_sum   'Mn16 H56 C144 N24 O64'
_cell_volume   9516.34247066
_cell_formula_units_Z   8
loop_
 _symmetry_equiv_pos_site_id
 _symmetry_equiv_pos_as_xyz
  1  'x, y, z'
loop_
 _atom_site_type_symbol
 _atom_site_label
 _atom_site_symmetry_multiplicity
 _atom_site_fract_x
 _atom_site_fract_y
 _atom_site_fract_z
 _atom_site_occupancy
 _atom_site_charge
Mn  Mn1  1  0.27324000  0.78719000  0.98364000  1.0 0.9889890583
Mn  Mn2  1  0.78719000  0.72676000  0.01636000  1.0 0.9889890583
Mn  Mn3  1  0.72676000  0.21281000  0.98364000  1.0 0.9889890583
Mn  Mn4  1  0.21281000  0.27324000  0.01636000  1.0 0.9889890583
Mn  Mn5  1  0.77324000  0.71281000  0.51636000  1.0 0.9889890583
Mn  Mn6  1  0.71281000  0.22676000  0.48364000  1.0 0.9889890583
Mn  Mn7  1  0.22676000  0.28719000  0.51636000  1.0 0.9889890583
Mn  Mn8  1  0.28719000  0.77324000  0.48364000  1.0 0.9889890583
Mn  Mn9  1  0.38754000  0.80931000  0.09078000  1.0 1.0495885195
Mn  Mn10  1  0.80931000  0.61246000  0.90922000  1.0 1.0495885195
Mn  Mn11  1  0.61246000  0.19069000  0.09078000  1.0 1.0495885195
Mn  Mn12  1  0.19069000  0.38754000  0.90922000  1.0 1.0495885195
Mn  Mn13  1  0.88754000  0.69069000  0.40922000  1.0 1.0495885195
Mn  Mn14  1  0.69069000  0.11246000  0.59078000  1.0 1.0495885195
Mn  Mn15  1  0.11246000  0.30931000  0.40922000  1.0 1.0495885195
Mn  Mn16  1  0.30931000  0.88754000  0.59078000  1.0 1.0495885195
H  H1  1  0.24540000  0.03260000  0.01670000  1.0 0.1378880641
H  H2  1  0.03260000  0.75460000  0.98330000  1.0 0.1378880641
H  H3  1  0.75460000  0.96740000  0.01670000  1.0 0.1378880641
H  H4  1  0.96740000  0.24540000  0.98330000  1.0 0.1378880641
H  H5  1  0.74540000  0.46740000  0.48330000  1.0 0.1378880641
H  H6  1  0.46740000  0.25460000  0.51670000  1.0 0.1378880641
H  H7  1  0.25460000  0.53260000  0.48330000  1.0 0.1378880641
H  H8  1  0.53260000  0.74540000  0.51670000  1.0 0.1378880641
H  H9  1  0.21340000  0.11250000  0.15760000  1.0 0.1195634533
H  H10  1  0.11250000  0.78660000  0.84240000  1.0 0.1195634533
H  H11  1  0.78660000  0.88750000  0.15760000  1.0 0.1195634533
H  H12  1  0.88750000  0.21340000  0.84240000  1.0 0.1195634533
H  H13  1  0.71340000  0.38750000  0.34240000  1.0 0.1195634533
H  H14  1  0.38750000  0.28660000  0.65760000  1.0 0.1195634533
H  H15  1  0.28660000  0.61250000  0.34240000  1.0 0.1195634533
H  H16  1  0.61250000  0.71340000  0.65760000  1.0 0.1195634533
H  H17  1  0.25150000  0.90840000  0.14010000  1.0 0.1195634533
H  H18  1  0.90840000  0.74850000  0.85990000  1.0 0.1195634533
H  H19  1  0.74850000  0.09160000  0.14010000  1.0 0.1195634533
H  H20  1  0.09160000  0.25150000  0.85990000  1.0 0.1195634533
H  H21  1  0.75150000  0.59160000  0.35990000  1.0 0.1195634533
H  H22  1  0.59160000  0.24850000  0.64010000  1.0 0.1195634533
H  H23  1  0.24850000  0.40840000  0.35990000  1.0 0.1195634533
H  H24  1  0.40840000  0.75150000  0.64010000  1.0 0.1195634533
H  H25  1  0.24080000  0.08760000  0.25210000  1.0 0.1273301629
H  H26  1  0.08760000  0.75920000  0.74790000  1.0 0.1273301629
H  H27  1  0.75920000  0.91240000  0.25210000  1.0 0.1273301629
H  H28  1  0.91240000  0.24080000  0.74790000  1.0 0.1273301629
H  H29  1  0.74080000  0.41240000  0.24790000  1.0 0.1273301629
H  H30  1  0.41240000  0.25920000  0.75210000  1.0 0.1273301629
H  H31  1  0.25920000  0.58760000  0.24790000  1.0 0.1273301629
H  H32  1  0.58760000  0.74080000  0.75210000  1.0 0.1273301629
H  H33  1  0.18530000  0.11650000  0.34550000  1.0 0.1273301629
H  H34  1  0.11650000  0.81470000  0.65450000  1.0 0.1273301629
H  H35  1  0.81470000  0.88350000  0.34550000  1.0 0.1273301629
H  H36  1  0.88350000  0.18530000  0.65450000  1.0 0.1273301629
H  H37  1  0.68530000  0.38350000  0.15450000  1.0 0.1273301629
H  H38  1  0.38350000  0.31470000  0.84550000  1.0 0.1273301629
H  H39  1  0.31470000  0.61650000  0.15450000  1.0 0.1273301629
H  H40  1  0.61650000  0.68530000  0.84550000  1.0 0.1273301629
H  H41  1  0.26410000  0.92620000  0.37150000  1.0 0.1378880641
H  H42  1  0.92620000  0.73590000  0.62850000  1.0 0.1378880641
H  H43  1  0.73590000  0.07380000  0.37150000  1.0 0.1378880641
H  H44  1  0.07380000  0.26410000  0.62850000  1.0 0.1378880641
H  H45  1  0.76410000  0.57380000  0.12850000  1.0 0.1378880641
H  H46  1  0.57380000  0.23590000  0.87150000  1.0 0.1378880641
H  H47  1  0.23590000  0.42620000  0.12850000  1.0 0.1378880641
H  H48  1  0.42620000  0.76410000  0.87150000  1.0 0.1378880641
H  H49  1  0.24620000  0.06300000  0.48870000  1.0 0.1378880641
H  H50  1  0.06300000  0.75380000  0.51130000  1.0 0.1378880641
H  H51  1  0.75380000  0.93700000  0.48870000  1.0 0.1378880641
H  H52  1  0.93700000  0.24620000  0.51130000  1.0 0.1378880641
H  H53  1  0.74620000  0.43700000  0.01130000  1.0 0.1378880641
H  H54  1  0.43700000  0.25380000  0.98870000  1.0 0.1378880641
H  H55  1  0.25380000  0.56300000  0.01130000  1.0 0.1378880641
H  H56  1  0.56300000  0.74620000  0.98870000  1.0 0.1378880641
C  C1  1  0.26490000  0.90050000  0.03880000  1.0 0.5778390424
C  C2  1  0.90050000  0.73510000  0.96120000  1.0 0.5778390424
C  C3  1  0.73510000  0.09950000  0.03880000  1.0 0.5778390424
C  C4  1  0.09950000  0.26490000  0.96120000  1.0 0.5778390424
C  C5  1  0.76490000  0.59950000  0.46120000  1.0 0.5778390424
C  C6  1  0.59950000  0.23510000  0.53880000  1.0 0.5778390424
C  C7  1  0.23510000  0.40050000  0.46120000  1.0 0.5778390424
C  C8  1  0.40050000  0.76490000  0.53880000  1.0 0.5778390424
C  C9  1  0.24900000  0.96200000  0.07380000  1.0 -0.0181776949
C  C10  1  0.96200000  0.75100000  0.92620000  1.0 -0.0181776949
C  C11  1  0.75100000  0.03800000  0.07380000  1.0 -0.0181776949
C  C12  1  0.03800000  0.24900000  0.92620000  1.0 -0.0181776949
C  C13  1  0.74900000  0.53800000  0.42620000  1.0 -0.0181776949
C  C14  1  0.53800000  0.25100000  0.57380000  1.0 -0.0181776949
C  C15  1  0.25100000  0.46200000  0.42620000  1.0 -0.0181776949
C  C16  1  0.46200000  0.74900000  0.57380000  1.0 -0.0181776949
C  C17  1  0.24180000  0.02680000  0.05230000  1.0 -0.0881044651
C  C18  1  0.02680000  0.75820000  0.94770000  1.0 -0.0881044651
C  C19  1  0.75820000  0.97320000  0.05230000  1.0 -0.0881044651
C  C20  1  0.97320000  0.24180000  0.94770000  1.0 -0.0881044651
C  C21  1  0.74180000  0.47320000  0.44770000  1.0 -0.0881044651
C  C22  1  0.47320000  0.25820000  0.55230000  1.0 -0.0881044651
C  C23  1  0.25820000  0.52680000  0.44770000  1.0 -0.0881044651
C  C24  1  0.52680000  0.74180000  0.55230000  1.0 -0.0881044651
C  C25  1  0.22930000  0.08350000  0.08380000  1.0 -0.0181776949
C  C26  1  0.08350000  0.77070000  0.91620000  1.0 -0.0181776949
C  C27  1  0.77070000  0.91650000  0.08380000  1.0 -0.0181776949
C  C28  1  0.91650000  0.22930000  0.91620000  1.0 -0.0181776949
C  C29  1  0.72930000  0.41650000  0.41620000  1.0 -0.0181776949
C  C30  1  0.41650000  0.27070000  0.58380000  1.0 -0.0181776949
C  C31  1  0.27070000  0.58350000  0.41620000  1.0 -0.0181776949
C  C32  1  0.58350000  0.72930000  0.58380000  1.0 -0.0181776949
C  C33  1  0.22400000  0.15400000  0.05900000  1.0 0.5415066289
C  C34  1  0.15400000  0.77600000  0.94100000  1.0 0.5415066289
C  C35  1  0.77600000  0.84600000  0.05900000  1.0 0.5415066289
C  C36  1  0.84600000  0.22400000  0.94100000  1.0 0.5415066289
C  C37  1  0.72400000  0.34600000  0.44100000  1.0 0.5415066289
C  C38  1  0.34600000  0.27600000  0.55900000  1.0 0.5415066289
C  C39  1  0.27600000  0.65400000  0.44100000  1.0 0.5415066289
C  C40  1  0.65400000  0.72400000  0.55900000  1.0 0.5415066289
C  C41  1  0.22240000  0.07450000  0.13620000  1.0 -0.1265595831
C  C42  1  0.07450000  0.77760000  0.86380000  1.0 -0.1265595831
C  C43  1  0.77760000  0.92550000  0.13620000  1.0 -0.1265595831
C  C44  1  0.92550000  0.22240000  0.86380000  1.0 -0.1265595831
C  C45  1  0.72240000  0.42550000  0.36380000  1.0 -0.1265595831
C  C46  1  0.42550000  0.27760000  0.63620000  1.0 -0.1265595831
C  C47  1  0.27760000  0.57450000  0.36380000  1.0 -0.1265595831
C  C48  1  0.57450000  0.72240000  0.63620000  1.0 -0.1265595831
C  C49  1  0.22900000  0.00850000  0.15730000  1.0 0.0570078309
C  C50  1  0.00850000  0.77100000  0.84270000  1.0 0.0570078309
C  C51  1  0.77100000  0.99150000  0.15730000  1.0 0.0570078309
C  C52  1  0.99150000  0.22900000  0.84270000  1.0 0.0570078309
C  C53  1  0.72900000  0.49150000  0.34270000  1.0 0.0570078309
C  C54  1  0.49150000  0.27100000  0.65730000  1.0 0.0570078309
C  C55  1  0.27100000  0.50850000  0.34270000  1.0 0.0570078309
C  C56  1  0.50850000  0.72900000  0.65730000  1.0 0.0570078309
C  C57  1  0.24440000  0.95230000  0.12590000  1.0 -0.1212526184
C  C58  1  0.95230000  0.75560000  0.87410000  1.0 -0.1212526184
C  C59  1  0.75560000  0.04770000  0.12590000  1.0 -0.1212526184
C  C60  1  0.04770000  0.24440000  0.87410000  1.0 -0.1212526184
C  C61  1  0.74440000  0.54770000  0.37410000  1.0 -0.1212526184
C  C62  1  0.54770000  0.25560000  0.62590000  1.0 -0.1212526184
C  C63  1  0.25560000  0.45230000  0.37410000  1.0 -0.1212526184
C  C64  1  0.45230000  0.74440000  0.62590000  1.0 -0.1212526184
C  C65  1  0.21970000  0.99750000  0.21240000  1.0 0.0870172645
C  C66  1  0.99750000  0.78030000  0.78760000  1.0 0.0870172645
C  C67  1  0.78030000  0.00250000  0.21240000  1.0 0.0870172645
C  C68  1  0.00250000  0.21970000  0.78760000  1.0 0.0870172645
C  C69  1  0.71970000  0.50250000  0.28760000  1.0 0.0870172645
C  C70  1  0.50250000  0.28030000  0.71240000  1.0 0.0870172645
C  C71  1  0.28030000  0.49750000  0.28760000  1.0 0.0870172645
C  C72  1  0.49750000  0.71970000  0.71240000  1.0 0.0870172645
C  C73  1  0.22960000  0.04050000  0.25340000  1.0 -0.1498838065
C  C74  1  0.04050000  0.77040000  0.74660000  1.0 -0.1498838065
C  C75  1  0.77040000  0.95950000  0.25340000  1.0 -0.1498838065
C  C76  1  0.95950000  0.22960000  0.74660000  1.0 -0.1498838065
C  C77  1  0.72960000  0.45950000  0.24660000  1.0 -0.1498838065
C  C78  1  0.45950000  0.27040000  0.75340000  1.0 -0.1498838065
C  C79  1  0.27040000  0.54050000  0.24660000  1.0 -0.1498838065
C  C80  1  0.54050000  0.72960000  0.75340000  1.0 -0.1498838065
C  C81  1  0.19090000  0.17090000  0.43910000  1.0 0.5905761378
C  C82  1  0.17090000  0.80910000  0.56090000  1.0 0.5905761378
C  C83  1  0.80910000  0.82910000  0.43910000  1.0 0.5905761378
C  C84  1  0.82910000  0.19090000  0.56090000  1.0 0.5905761378
C  C85  1  0.69090000  0.32910000  0.06090000  1.0 0.5905761378
C  C86  1  0.32910000  0.30910000  0.93910000  1.0 0.5905761378
C  C87  1  0.30910000  0.67090000  0.06090000  1.0 0.5905761378
C  C88  1  0.67090000  0.69090000  0.93910000  1.0 0.5905761378
C  C89  1  0.20470000  0.08420000  0.36820000  1.0 -0.1676714836
C  C90  1  0.08420000  0.79530000  0.63180000  1.0 -0.1676714836
C  C91  1  0.79530000  0.91580000  0.36820000  1.0 -0.1676714836
C  C92  1  0.91580000  0.20470000  0.63180000  1.0 -0.1676714836
C  C93  1  0.70470000  0.41580000  0.13180000  1.0 -0.1676714836
C  C94  1  0.41580000  0.29530000  0.86820000  1.0 -0.1676714836
C  C95  1  0.29530000  0.58420000  0.13180000  1.0 -0.1676714836
C  C96  1  0.58420000  0.70470000  0.86820000  1.0 -0.1676714836
C  C97  1  0.21300000  0.10060000  0.42080000  1.0 -0.0268254386
C  C98  1  0.10060000  0.78700000  0.57920000  1.0 -0.0268254386
C  C99  1  0.78700000  0.89940000  0.42080000  1.0 -0.0268254386
C  C100  1  0.89940000  0.21300000  0.57920000  1.0 -0.0268254386
C  C101  1  0.71300000  0.39940000  0.07920000  1.0 -0.0268254386
C  C102  1  0.39940000  0.28700000  0.92080000  1.0 -0.0268254386
C  C103  1  0.28700000  0.60060000  0.07920000  1.0 -0.0268254386
C  C104  1  0.60060000  0.71300000  0.92080000  1.0 -0.0268254386
C  C105  1  0.22550000  0.02040000  0.35060000  1.0 0.1273301629
C  C106  1  0.02040000  0.77450000  0.64940000  1.0 0.1273301629
C  C107  1  0.77450000  0.97960000  0.35060000  1.0 0.1273301629
C  C108  1  0.97960000  0.22550000  0.64940000  1.0 0.1273301629
C  C109  1  0.72550000  0.47960000  0.14940000  1.0 0.1273301629
C  C110  1  0.47960000  0.27450000  0.85060000  1.0 0.1273301629
C  C111  1  0.27450000  0.52040000  0.14940000  1.0 0.1273301629
C  C112  1  0.52040000  0.72550000  0.85060000  1.0 0.1273301629
C  C113  1  0.25130000  0.96980000  0.38410000  1.0 -0.1498838065
C  C114  1  0.96980000  0.74870000  0.61590000  1.0 -0.1572943795
C  C115  1  0.74870000  0.03020000  0.38410000  1.0 -0.1572943795
C  C116  1  0.03020000  0.25130000  0.61590000  1.0 -0.1498838065
C  C117  1  0.75130000  0.53020000  0.11590000  1.0 -0.1572943795
C  C118  1  0.53020000  0.24870000  0.88410000  1.0 -0.1572943795
C  C119  1  0.24870000  0.46980000  0.11590000  1.0 -0.1572943795
C  C120  1  0.46980000  0.75130000  0.88410000  1.0 -0.1572943795
C  C121  1  0.25790000  0.98510000  0.43650000  1.0 -0.0088730412
C  C122  1  0.98510000  0.74210000  0.56350000  1.0 -0.0088730412
C  C123  1  0.74210000  0.01490000  0.43650000  1.0 -0.0088730412
C  C124  1  0.01490000  0.25790000  0.56350000  1.0 -0.0088730412
C  C125  1  0.75790000  0.51490000  0.06350000  1.0 -0.0088730412
C  C126  1  0.51490000  0.24210000  0.93650000  1.0 -0.0088730412
C  C127  1  0.24210000  0.48510000  0.06350000  1.0 -0.0088730412
C  C128  1  0.48510000  0.75790000  0.93650000  1.0 -0.0088730412
C  C129  1  0.23990000  0.05170000  0.45400000  1.0 -0.0881044651
C  C130  1  0.05170000  0.76010000  0.54600000  1.0 -0.0881044651
C  C131  1  0.76010000  0.94830000  0.45400000  1.0 -0.0881044651
C  C132  1  0.94830000  0.23990000  0.54600000  1.0 -0.0881044651
C  C133  1  0.73990000  0.44830000  0.04600000  1.0 -0.0881044651
C  C134  1  0.44830000  0.26010000  0.95400000  1.0 -0.0881044651
C  C135  1  0.26010000  0.55170000  0.04600000  1.0 -0.0881044651
C  C136  1  0.55170000  0.73990000  0.95400000  1.0 -0.0881044651
C  C137  1  0.28450000  0.92790000  0.47230000  1.0 0.5905761378
C  C138  1  0.92790000  0.71550000  0.52770000  1.0 0.5905761378
C  C139  1  0.71550000  0.07210000  0.47230000  1.0 0.5905761378
C  C140  1  0.07210000  0.28450000  0.52770000  1.0 0.5905761378
C  C141  1  0.78450000  0.57210000  0.02770000  1.0 0.5905761378
C  C142  1  0.57210000  0.21550000  0.97230000  1.0 0.5905761378
C  C143  1  0.21550000  0.42790000  0.02770000  1.0 0.5905761378
C  C144  1  0.42790000  0.78450000  0.97230000  1.0 0.5905761378
N  N1  1  0.19900000  0.93620000  0.28070000  1.0 -0.1212526184
N  N2  1  0.93620000  0.80100000  0.71930000  1.0 -0.1212526184
N  N3  1  0.80100000  0.06380000  0.28070000  1.0 -0.1212526184
N  N4  1  0.06380000  0.19900000  0.71930000  1.0 -0.1212526184
N  N5  1  0.69900000  0.56380000  0.21930000  1.0 -0.1212526184
N  N6  1  0.56380000  0.30100000  0.78070000  1.0 -0.1212526184
N  N7  1  0.30100000  0.43620000  0.21930000  1.0 -0.1212526184
N  N8  1  0.43620000  0.69900000  0.78070000  1.0 -0.1212526184
N  N9  1  0.20080000  0.93380000  0.23150000  1.0 -0.2066341756
N  N10  1  0.93380000  0.79920000  0.76850000  1.0 -0.2066341756
N  N11  1  0.79920000  0.06620000  0.23150000  1.0 -0.2066341756
N  N12  1  0.06620000  0.20080000  0.76850000  1.0 -0.2066341756
N  N13  1  0.70080000  0.56620000  0.26850000  1.0 -0.2066341756
N  N14  1  0.56620000  0.29920000  0.73150000  1.0 -0.2066341756
N  N15  1  0.29920000  0.43380000  0.26850000  1.0 -0.2066341756
N  N16  1  0.43380000  0.70080000  0.73150000  1.0 -0.2066341756
N  N17  1  0.22010000  0.00210000  0.29610000  1.0 0.1273301629
N  N18  1  0.00210000  0.77990000  0.70390000  1.0 0.1273301629
N  N19  1  0.77990000  0.99790000  0.29610000  1.0 0.1273301629
N  N20  1  0.99790000  0.22010000  0.70390000  1.0 0.1273301629
N  N21  1  0.72010000  0.49790000  0.20390000  1.0 0.1273301629
N  N22  1  0.49790000  0.27990000  0.79610000  1.0 0.1273301629
N  N23  1  0.27990000  0.50210000  0.20390000  1.0 0.1273301629
N  N24  1  0.50210000  0.72010000  0.79610000  1.0 0.1273301629
O  O1  1  0.15660000  0.20760000  0.40910000  1.0 -0.5594839273
O  O2  1  0.20760000  0.84340000  0.59090000  1.0 -0.5594839273
O  O3  1  0.84340000  0.79240000  0.40910000  1.0 -0.5594839273
O  O4  1  0.79240000  0.15660000  0.59090000  1.0 -0.5594839273
O  O5  1  0.65660000  0.29240000  0.09090000  1.0 -0.5594839273
O  O6  1  0.29240000  0.34340000  0.90910000  1.0 -0.5594839273
O  O7  1  0.34340000  0.70760000  0.09090000  1.0 -0.5594839273
O  O8  1  0.70760000  0.65660000  0.90910000  1.0 -0.5594839273
O  O9  1  0.29550000  0.87130000  0.45120000  1.0 -0.5263660071
O  O10  1  0.87130000  0.70450000  0.54880000  1.0 -0.5263660071
O  O11  1  0.70450000  0.12870000  0.45120000  1.0 -0.5263660071
O  O12  1  0.12870000  0.29550000  0.54880000  1.0 -0.5246706722
O  O13  1  0.79550000  0.62870000  0.04880000  1.0 -0.5246706722
O  O14  1  0.62870000  0.20450000  0.95120000  1.0 -0.5263660071
O  O15  1  0.20450000  0.37130000  0.04880000  1.0 -0.5263660071
O  O16  1  0.37130000  0.79550000  0.95120000  1.0 -0.5246706722
O  O17  1  0.20970000  0.18790000  0.48405000  1.0 -0.538244967
O  O18  1  0.18790000  0.79030000  0.51595000  1.0 -0.538244967
O  O19  1  0.79030000  0.81210000  0.48405000  1.0 -0.538244967
O  O20  1  0.81210000  0.20970000  0.51595000  1.0 -0.538244967
O  O21  1  0.70970000  0.31210000  0.01595000  1.0 -0.538244967
O  O22  1  0.31210000  0.29030000  0.98405000  1.0 -0.538244967
O  O23  1  0.29030000  0.68790000  0.01595000  1.0 -0.538244967
O  O24  1  0.68790000  0.70970000  0.98405000  1.0 -0.538244967
O  O25  1  0.25700000  0.90570000  0.99115000  1.0 -0.4786147779
O  O26  1  0.90570000  0.74300000  0.00885000  1.0 -0.4786147779
O  O27  1  0.74300000  0.09430000  0.99115000  1.0 -0.4786147779
O  O28  1  0.09430000  0.25700000  0.00885000  1.0 -0.4786147779
O  O29  1  0.75700000  0.59430000  0.50885000  1.0 -0.4786147779
O  O30  1  0.59430000  0.24300000  0.49115000  1.0 -0.4786147779
O  O31  1  0.24300000  0.40570000  0.50885000  1.0 -0.4786147779
O  O32  1  0.40570000  0.75700000  0.49115000  1.0 -0.4786147779
O  O33  1  0.29190000  0.94240000  0.51850000  1.0 -0.5682838751
O  O34  1  0.94240000  0.70810000  0.48150000  1.0 -0.5682838751
O  O35  1  0.70810000  0.05760000  0.51850000  1.0 -0.5682838751
O  O36  1  0.05760000  0.29190000  0.48150000  1.0 -0.5682838751
O  O37  1  0.79190000  0.55760000  0.98150000  1.0 -0.5682838751
O  O38  1  0.55760000  0.20810000  0.01850000  1.0 -0.5682838751
O  O39  1  0.20810000  0.44240000  0.98150000  1.0 -0.5682838751
O  O40  1  0.44240000  0.79190000  0.01850000  1.0 -0.5682838751
O  O41  1  0.22000000  0.20830000  0.08813000  1.0 -0.5493944852
O  O42  1  0.20830000  0.78000000  0.91187000  1.0 -0.5493944852
O  O43  1  0.78000000  0.79170000  0.08813000  1.0 -0.5493944852
O  O44  1  0.79170000  0.22000000  0.91187000  1.0 -0.5493944852
O  O45  1  0.72000000  0.29170000  0.41187000  1.0 -0.5493944852
O  O46  1  0.29170000  0.28000000  0.58813000  1.0 -0.5493944852
O  O47  1  0.28000000  0.70830000  0.41187000  1.0 -0.5493944852
O  O48  1  0.70830000  0.72000000  0.58813000  1.0 -0.5493944852
O  O49  1  0.28560000  0.84330000  0.05969000  1.0 -0.6198118596
O  O50  1  0.84330000  0.71440000  0.94031000  1.0 -0.6198118596
O  O51  1  0.71440000  0.15670000  0.05969000  1.0 -0.6198118596
O  O52  1  0.15670000  0.28560000  0.94031000  1.0 -0.6198118596
O  O53  1  0.78560000  0.65670000  0.44031000  1.0 -0.6198118596
O  O54  1  0.65670000  0.21440000  0.55969000  1.0 -0.6198118596
O  O55  1  0.21440000  0.34330000  0.44031000  1.0 -0.6198118596
O  O56  1  0.34330000  0.78560000  0.55969000  1.0 -0.6198118596
O  O57  1  0.22370000  0.15900000  0.01150000  1.0 -0.5086894004
O  O58  1  0.15900000  0.77630000  0.98850000  1.0 -0.5086894004
O  O59  1  0.77630000  0.84100000  0.01150000  1.0 -0.5086894004
O  O60  1  0.84100000  0.22370000  0.98850000  1.0 -0.5086894004
O  O61  1  0.72370000  0.34100000  0.48850000  1.0 -0.5086894004
O  O62  1  0.34100000  0.27630000  0.51150000  1.0 -0.5086894004
O  O63  1  0.27630000  0.65900000  0.48850000  1.0 -0.5086894004
O  O64  1  0.65900000  0.72370000  0.51150000  1.0 -0.5086894004
