# DDEC6 charges by PACMAN v1.1 (https://github.com/mtap-research/PACMAN-charge/)
data_ZOGRUL_ASR_pacman
_symmetry_space_group_name_H-M   'P 1'
_cell_length_a   17.62620000
_cell_length_b   17.62620000
_cell_length_c   7.77930000
_cell_angle_alpha   78.99910000
_cell_angle_beta   101.00100000
_cell_angle_gamma   128.22400000
_symmetry_Int_Tables_number   1
_chemical_formula_structural   ZrH4C12N2O7
_chemical_formula_sum   'Zr4 H16 C48 N8 O28'
_cell_volume   1855.50401059
_cell_formula_units_Z   4
loop_
 _symmetry_equiv_pos_site_id
 _symmetry_equiv_pos_as_xyz
  1  'x, y, z'
loop_
 _atom_site_type_symbol
 _atom_site_label
 _atom_site_symmetry_multiplicity
 _atom_site_fract_x
 _atom_site_fract_y
 _atom_site_fract_z
 _atom_site_occupancy
 _atom_site_charge
Zr  Zr1  1  0.06145000  0.97391000  0.16687000  1.0 2.3452180077
Zr  Zr2  1  0.94442000  0.02784000  0.84026000  1.0 2.3764746834
Zr  Zr3  1  0.02609000  0.93855000  0.66687000  1.0 2.3452180077
Zr  Zr4  1  0.97216000  0.05558000  0.34026000  1.0 2.3764746834
H  H1  1  0.33206000  0.02806000  0.19632000  1.0 0.1460242768
H  H2  1  0.25522000  0.92376000  0.72415000  1.0 0.1584677857
H  H3  1  0.73865000  0.07487000  0.26679000  1.0 0.1584677857
H  H4  1  0.66181000  0.97057000  0.79462000  1.0 0.1390142043
H  H5  1  0.25476000  0.36098000  0.35515000  1.0 0.1338287343
H  H6  1  0.36194000  0.23884000  0.20834000  1.0 0.1584677857
H  H7  1  0.69014000  0.78420000  0.35427000  1.0 0.1584677857
H  H8  1  0.79732000  0.66206000  0.20746000  1.0 0.1390142043
H  H9  1  0.97194000  0.66794000  0.69632000  1.0 0.1460242768
H  H10  1  0.07624000  0.74478000  0.22415000  1.0 0.1584677857
H  H11  1  0.92513000  0.26135000  0.76679000  1.0 0.1584677857
H  H12  1  0.02943000  0.33820000  0.29462000  1.0 0.1390142043
H  H13  1  0.63902000  0.74524000  0.85515000  1.0 0.1338287343
H  H14  1  0.76116000  0.63806000  0.70834000  1.0 0.1584677857
H  H15  1  0.21580000  0.30986000  0.85427000  1.0 0.1584677857
H  H16  1  0.33794000  0.20268000  0.70746000  1.0 0.1390142043
C  C1  1  0.45151000  0.99409000  0.98760000  1.0 0.1127435111
C  C2  1  0.34533000  0.01055000  0.10709000  1.0 0.0490026076
C  C3  1  0.27915000  0.97425000  0.95772000  1.0 -0.0602134454
C  C4  1  0.29914000  0.94786000  0.82329000  1.0 -0.1620139629
C  C5  1  0.38532000  0.95778000  0.83823000  1.0 0.2484463294
C  C6  1  0.54235000  0.00455000  0.00334000  1.0 0.1127435111
C  C7  1  0.60854000  0.04084000  0.15271000  1.0 0.2484463294
C  C8  1  0.69472000  0.05078000  0.16765000  1.0 -0.1697508904
C  C9  1  0.71472000  0.02438000  0.03321000  1.0 -0.0672217521
C  C10  1  0.64853000  0.98808000  0.88385000  1.0 0.0318235624
C  C11  1  0.18831000  0.96379000  0.94198000  1.0 0.6287419249
C  C12  1  0.80556000  0.03484000  0.04896000  1.0 0.667195027
C  C13  1  0.47740000  0.46424000  0.28140000  1.0 0.1005188276
C  C14  1  0.30677000  0.36639000  0.32580000  1.0 0.0318235624
C  C15  1  0.29284000  0.28482000  0.28177000  1.0 -0.0672217521
C  C16  1  0.37119000  0.29297000  0.23756000  1.0 -0.1620139629
C  C17  1  0.46348000  0.38268000  0.23737000  1.0 0.2484463294
C  C18  1  0.57467000  0.55879000  0.28120000  1.0 0.1005188276
C  C19  1  0.58861000  0.64035000  0.32523000  1.0 0.2437470505
C  C20  1  0.68089000  0.73007000  0.32504000  1.0 -0.1779127295
C  C21  1  0.75925000  0.73821000  0.28083000  1.0 -0.0602134454
C  C22  1  0.74531000  0.65665000  0.23680000  1.0 0.0318235624
C  C23  1  0.19557000  0.19027000  0.28197000  1.0 0.6530691434
C  C24  1  0.85652000  0.83276000  0.28063000  1.0 0.6584463765
C  C25  1  0.00591000  0.54849000  0.48760000  1.0 0.1127435111
C  C26  1  0.98945000  0.65467000  0.60709000  1.0 0.0490026076
C  C27  1  0.02575000  0.72085000  0.45772000  1.0 -0.0602134454
C  C28  1  0.05214000  0.70086000  0.32329000  1.0 -0.1620139629
C  C29  1  0.04222000  0.61468000  0.33823000  1.0 0.2484463294
C  C30  1  0.99545000  0.45765000  0.50334000  1.0 0.1127435111
C  C31  1  0.95916000  0.39146000  0.65271000  1.0 0.2484463294
C  C32  1  0.94922000  0.30528000  0.66765000  1.0 -0.1697508904
C  C33  1  0.97562000  0.28528000  0.53321000  1.0 -0.0672217521
C  C34  1  0.01192000  0.35147000  0.38385000  1.0 0.0318235624
C  C35  1  0.03621000  0.81169000  0.44198000  1.0 0.6287419249
C  C36  1  0.96516000  0.19444000  0.54896000  1.0 0.667195027
C  C37  1  0.53576000  0.52260000  0.78140000  1.0 0.1005188276
C  C38  1  0.63361000  0.69323000  0.82580000  1.0 0.0318235624
C  C39  1  0.71518000  0.70716000  0.78177000  1.0 -0.0672217521
C  C40  1  0.70703000  0.62881000  0.73756000  1.0 -0.1620139629
C  C41  1  0.61732000  0.53652000  0.73737000  1.0 0.2437470505
C  C42  1  0.44121000  0.42533000  0.78120000  1.0 0.0947696392
C  C43  1  0.35965000  0.41139000  0.82523000  1.0 0.2437470505
C  C44  1  0.26993000  0.31911000  0.82504000  1.0 -0.1779127295
C  C45  1  0.26179000  0.24075000  0.78083000  1.0 -0.0602134454
C  C46  1  0.34335000  0.25469000  0.73680000  1.0 0.0318235624
C  C47  1  0.80973000  0.80443000  0.78197000  1.0 0.6530691434
C  C48  1  0.16724000  0.14348000  0.78063000  1.0 0.6584463765
N  N1  1  0.43152000  0.02048000  0.12203000  1.0 -0.1620139629
N  N2  1  0.56234000  0.97816000  0.86891000  1.0 -0.1470504801
N  N3  1  0.39905000  0.45609000  0.32561000  1.0 -0.1697508904
N  N4  1  0.65302000  0.56694000  0.23699000  1.0 -0.1779127295
N  N5  1  0.97952000  0.56848000  0.62203000  1.0 -0.1620139629
N  N6  1  0.02184000  0.43766000  0.36891000  1.0 -0.1470504801
N  N7  1  0.54391000  0.60095000  0.82561000  1.0 -0.1697508904
N  N8  1  0.43306000  0.34698000  0.73699000  1.0 -0.1779127295
O  O1  1  0.00674000  0.95326000  0.91210000  1.0 -1.0772825431
O  O2  1  0.99874000  0.04786000  0.09500000  1.0 -1.1343976806
O  O3  1  0.18363000  0.01629000  0.02501000  1.0 -0.5811309468
O  O4  1  0.11463000  0.90227000  0.84537000  1.0 -0.588557909
O  O5  1  0.84808000  0.03356000  0.20034000  1.0 -0.5957183193
O  O6  1  0.84139000  0.04515000  0.91116000  1.0 -0.6089913796
O  O7  1  0.40460000  0.93236000  0.70871000  1.0 -0.4172407737
O  O8  1  0.58927000  0.06627000  0.28223000  1.0 -0.4172407737
O  O9  1  0.12500000  0.18214000  0.32773000  1.0 -0.588557909
O  O10  1  0.18222000  0.11684000  0.23637000  1.0 -0.5591125737
O  O11  1  0.87565000  0.89993000  0.36172000  1.0 -0.6153507184
O  O12  1  0.92129000  0.84715000  0.19937000  1.0 -0.5811309468
O  O13  1  0.53897000  0.39053000  0.19477000  1.0 -0.3626225542
O  O14  1  0.51312000  0.63250000  0.36783000  1.0 -0.3669064741
O  O15  1  0.04674000  0.99326000  0.41210000  1.0 -1.0772825431
O  O16  1  0.95214000  0.00126000  0.59500000  1.0 -1.1343976806
O  O17  1  0.98371000  0.81637000  0.52501000  1.0 -0.5811309468
O  O18  1  0.09773000  0.88537000  0.34537000  1.0 -0.588557909
O  O19  1  0.96644000  0.15192000  0.70034000  1.0 -0.5957183193
O  O20  1  0.95485000  0.15861000  0.41116000  1.0 -0.6089913796
O  O21  1  0.06764000  0.59540000  0.20871000  1.0 -0.4172407737
O  O22  1  0.93373000  0.41073000  0.78223000  1.0 -0.4136927675
O  O23  1  0.81786000  0.87500000  0.82773000  1.0 -0.588557909
O  O24  1  0.88316000  0.81778000  0.73637000  1.0 -0.5591125737
O  O25  1  0.10007000  0.12435000  0.86172000  1.0 -0.6153507184
O  O26  1  0.15285000  0.07871000  0.69937000  1.0 -0.5811309468
O  O27  1  0.60947000  0.46103000  0.69477000  1.0 -0.3626225542
O  O28  1  0.36750000  0.48688000  0.86783000  1.0 -0.3669064741
