# DDEC6 charges by PACMAN v1.1 (https://github.com/mtap-research/PACMAN-charge/)
data_ZOHCUX_FSR_pacman
_symmetry_space_group_name_H-M   'P 1'
_cell_length_a   16.83840000
_cell_length_b   16.83840000
_cell_length_c   19.05160000
_cell_angle_alpha   90.00000000
_cell_angle_beta   90.00000000
_cell_angle_gamma   120.00000000
_symmetry_Int_Tables_number   1
_chemical_formula_structural   Co3H42C57N15O7
_chemical_formula_sum   'Co6 H84 C114 N30 O14'
_cell_volume   4678.03784061
_cell_formula_units_Z   2
loop_
 _symmetry_equiv_pos_site_id
 _symmetry_equiv_pos_as_xyz
  1  'x, y, z'
loop_
 _atom_site_type_symbol
 _atom_site_label
 _atom_site_symmetry_multiplicity
 _atom_site_fract_x
 _atom_site_fract_y
 _atom_site_fract_z
 _atom_site_occupancy
 _atom_site_charge
Co  Co1  1  0.73514000  0.47028000  0.32000000  1.0 0.8067731154
Co  Co2  1  0.73514000  0.26486000  0.32000000  1.0 0.8067731154
Co  Co3  1  0.52972000  0.26486000  0.32000000  1.0 0.8067731154
Co  Co4  1  0.26486000  0.52972000  0.82000000  1.0 0.8067731154
Co  Co5  1  0.26486000  0.73514000  0.82000000  1.0 0.8067731154
Co  Co6  1  0.47028000  0.73514000  0.82000000  1.0 0.8067731154
H  H1  1  0.97920000  0.38290000  0.45640000  1.0 0.1017099661
H  H2  1  0.09430000  0.44180000  0.54510000  1.0 0.0906938386
H  H3  1  0.12970000  0.44780000  0.67130000  1.0 0.1017099661
H  H4  1  0.93160000  0.62920000  0.31690000  1.0 0.0906938386
H  H5  1  0.01660000  0.79140000  0.30480000  1.0 0.1258340222
H  H6  1  0.88720000  0.33290000  0.51490000  1.0 0.1053342563
H  H7  1  0.98640000  0.38090000  0.60640000  1.0 0.1017099661
H  H8  1  0.40370000  0.02080000  0.45640000  1.0 0.1017099661
H  H9  1  0.34750000  0.90570000  0.54510000  1.0 0.0906938386
H  H10  1  0.31810000  0.87030000  0.67130000  1.0 0.1017099661
H  H11  1  0.69760000  0.06840000  0.31690000  1.0 0.0906938386
H  H12  1  0.77480000  0.98340000  0.30480000  1.0 0.1258340222
H  H13  1  0.44570000  0.11280000  0.51490000  1.0 0.1053342563
H  H14  1  0.39450000  0.01360000  0.60640000  1.0 0.1017099661
H  H15  1  0.61710000  0.59630000  0.45640000  1.0 0.1017099661
H  H16  1  0.55820000  0.65250000  0.54510000  1.0 0.0906938386
H  H17  1  0.55220000  0.68190000  0.67130000  1.0 0.1017099661
H  H18  1  0.37080000  0.30240000  0.31690000  1.0 0.0906938386
H  H19  1  0.20860000  0.22520000  0.30480000  1.0 0.1258340222
H  H20  1  0.66710000  0.55430000  0.51490000  1.0 0.1053342563
H  H21  1  0.61910000  0.60550000  0.60640000  1.0 0.1017099661
H  H22  1  0.02080000  0.61710000  0.95640000  1.0 0.1017099661
H  H23  1  0.90570000  0.55820000  0.04510000  1.0 0.0906938386
H  H24  1  0.87030000  0.55220000  0.17130000  1.0 0.1017099661
H  H25  1  0.06840000  0.37080000  0.81690000  1.0 0.0906938386
H  H26  1  0.98340000  0.20860000  0.80480000  1.0 0.1258340222
H  H27  1  0.11280000  0.66710000  0.01490000  1.0 0.1017099661
H  H28  1  0.01360000  0.61910000  0.10640000  1.0 0.1017099661
H  H29  1  0.59630000  0.97920000  0.95640000  1.0 0.1017099661
H  H30  1  0.65250000  0.09430000  0.04510000  1.0 0.0906938386
H  H31  1  0.68190000  0.12970000  0.17130000  1.0 0.1017099661
H  H32  1  0.30240000  0.93160000  0.81690000  1.0 0.0906938386
H  H33  1  0.22520000  0.01660000  0.80480000  1.0 0.1258340222
H  H34  1  0.55430000  0.88720000  0.01490000  1.0 0.1017099661
H  H35  1  0.60550000  0.98640000  0.10640000  1.0 0.1017099661
H  H36  1  0.38290000  0.40370000  0.95640000  1.0 0.1017099661
H  H37  1  0.44180000  0.34750000  0.04510000  1.0 0.0906938386
H  H38  1  0.44780000  0.31810000  0.17130000  1.0 0.1017099661
H  H39  1  0.62920000  0.69760000  0.81690000  1.0 0.0906938386
H  H40  1  0.79140000  0.77480000  0.80480000  1.0 0.1258340222
H  H41  1  0.33290000  0.44570000  0.01490000  1.0 0.1017099661
H  H42  1  0.38090000  0.39450000  0.10640000  1.0 0.1017099661
H  H43  1  0.40370000  0.38290000  0.45640000  1.0 0.1017099661
H  H44  1  0.34750000  0.44180000  0.54510000  1.0 0.0906938386
H  H45  1  0.31810000  0.44780000  0.67130000  1.0 0.1017099661
H  H46  1  0.69760000  0.62920000  0.31690000  1.0 0.0906938386
H  H47  1  0.77480000  0.79140000  0.30480000  1.0 0.1258340222
H  H48  1  0.44570000  0.33290000  0.51490000  1.0 0.1017099661
H  H49  1  0.39450000  0.38090000  0.60640000  1.0 0.1017099661
H  H50  1  0.61710000  0.02080000  0.45640000  1.0 0.1017099661
H  H51  1  0.55820000  0.90570000  0.54510000  1.0 0.0906938386
H  H52  1  0.55220000  0.87030000  0.67130000  1.0 0.1017099661
H  H53  1  0.37080000  0.06840000  0.31690000  1.0 0.0906938386
H  H54  1  0.20860000  0.98340000  0.30480000  1.0 0.1258340222
H  H55  1  0.66710000  0.11280000  0.51490000  1.0 0.1053342563
H  H56  1  0.61910000  0.01360000  0.60640000  1.0 0.1017099661
H  H57  1  0.97920000  0.59630000  0.45640000  1.0 0.1017099661
H  H58  1  0.09430000  0.65250000  0.54510000  1.0 0.0906938386
H  H59  1  0.12970000  0.68190000  0.67130000  1.0 0.1017099661
H  H60  1  0.93160000  0.30240000  0.31690000  1.0 0.0906938386
H  H61  1  0.01660000  0.22520000  0.30480000  1.0 0.1258340222
H  H62  1  0.88720000  0.55430000  0.51490000  1.0 0.1053342563
H  H63  1  0.98640000  0.60550000  0.60640000  1.0 0.1017099661
H  H64  1  0.59630000  0.61710000  0.95640000  1.0 0.1017099661
H  H65  1  0.65250000  0.55820000  0.04510000  1.0 0.0906938386
H  H66  1  0.68190000  0.55220000  0.17130000  1.0 0.1017099661
H  H67  1  0.30240000  0.37080000  0.81690000  1.0 0.0906938386
H  H68  1  0.22520000  0.20860000  0.80480000  1.0 0.1258340222
H  H69  1  0.55430000  0.66710000  0.01490000  1.0 0.1017099661
H  H70  1  0.60550000  0.61910000  0.10640000  1.0 0.1017099661
H  H71  1  0.38290000  0.97920000  0.95640000  1.0 0.1017099661
H  H72  1  0.44180000  0.09430000  0.04510000  1.0 0.0906938386
H  H73  1  0.44780000  0.12970000  0.17130000  1.0 0.1017099661
H  H74  1  0.62920000  0.93160000  0.81690000  1.0 0.0906938386
H  H75  1  0.79140000  0.01660000  0.80480000  1.0 0.1258340222
H  H76  1  0.33290000  0.88720000  0.01490000  1.0 0.1017099661
H  H77  1  0.38090000  0.98640000  0.10640000  1.0 0.1017099661
H  H78  1  0.02080000  0.40370000  0.95640000  1.0 0.1017099661
H  H79  1  0.90570000  0.34750000  0.04510000  1.0 0.0906938386
H  H80  1  0.87030000  0.31810000  0.17130000  1.0 0.1017099661
H  H81  1  0.06840000  0.69760000  0.81690000  1.0 0.0906938386
H  H82  1  0.98340000  0.77480000  0.80480000  1.0 0.1258340222
H  H83  1  0.11280000  0.44570000  0.01490000  1.0 0.1017099661
H  H84  1  0.01360000  0.39450000  0.10640000  1.0 0.1017099661
C  C1  1  0.98500000  0.43120000  0.48560000  1.0 -0.0682658375
C  C2  1  0.05230000  0.46360000  0.54040000  1.0 -0.120915441
C  C3  1  0.14060000  0.50680000  0.68450000  1.0 0.0520337787
C  C4  1  0.89960000  0.66190000  0.31080000  1.0 0.0779125369
C  C5  1  0.95150000  0.75990000  0.30580000  1.0 -0.187503356
C  C6  1  0.92900000  0.39640000  0.52190000  1.0 -0.0843283194
C  C7  1  0.98640000  0.42440000  0.57460000  1.0 -0.0682658375
C  C8  1  0.44620000  0.01500000  0.48560000  1.0 -0.0682658375
C  C9  1  0.41130000  0.94770000  0.54040000  1.0 -0.120915441
C  C10  1  0.36620000  0.85940000  0.68450000  1.0 0.0520337787
C  C11  1  0.76230000  0.10040000  0.31080000  1.0 0.0779125369
C  C12  1  0.80840000  0.04850000  0.30580000  1.0 -0.187503356
C  C13  1  0.46740000  0.07100000  0.52190000  1.0 -0.0843283194
C  C14  1  0.43800000  0.01360000  0.57460000  1.0 -0.0682658375
C  C15  1  0.56880000  0.55380000  0.48560000  1.0 -0.0682658375
C  C16  1  0.53640000  0.58870000  0.54040000  1.0 -0.120915441
C  C17  1  0.49320000  0.63380000  0.68450000  1.0 0.0520337787
C  C18  1  0.33810000  0.23770000  0.31080000  1.0 0.0779125369
C  C19  1  0.24010000  0.19160000  0.30580000  1.0 -0.187503356
C  C20  1  0.60360000  0.53260000  0.52190000  1.0 -0.0843283194
C  C21  1  0.57560000  0.56200000  0.57460000  1.0 -0.0682658375
C  C22  1  0.01500000  0.56880000  0.98560000  1.0 -0.0682658375
C  C23  1  0.94770000  0.53640000  0.04040000  1.0 -0.120915441
C  C24  1  0.85940000  0.49320000  0.18450000  1.0 0.0520337787
C  C25  1  0.10040000  0.33810000  0.81080000  1.0 0.0779125369
C  C26  1  0.04850000  0.24010000  0.80580000  1.0 -0.187503356
C  C27  1  0.07100000  0.60360000  0.02190000  1.0 -0.0843283194
C  C28  1  0.01360000  0.57560000  0.07460000  1.0 -0.0682658375
C  C29  1  0.55380000  0.98500000  0.98560000  1.0 -0.0682658375
C  C30  1  0.58870000  0.05230000  0.04040000  1.0 -0.120915441
C  C31  1  0.63380000  0.14060000  0.18450000  1.0 0.0520337787
C  C32  1  0.23770000  0.89960000  0.81080000  1.0 0.0779125369
C  C33  1  0.19160000  0.95150000  0.80580000  1.0 -0.187503356
C  C34  1  0.53260000  0.92900000  0.02190000  1.0 -0.0843283194
C  C35  1  0.56200000  0.98640000  0.07460000  1.0 -0.0682658375
C  C36  1  0.43120000  0.44620000  0.98560000  1.0 -0.0682658375
C  C37  1  0.46360000  0.41130000  0.04040000  1.0 -0.120915441
C  C38  1  0.50680000  0.36620000  0.18450000  1.0 0.0520337787
C  C39  1  0.66190000  0.76230000  0.81080000  1.0 0.0779125369
C  C40  1  0.75990000  0.80840000  0.80580000  1.0 -0.187503356
C  C41  1  0.39640000  0.46740000  0.02190000  1.0 -0.0843283194
C  C42  1  0.42440000  0.43800000  0.07460000  1.0 -0.0682658375
C  C43  1  0.44620000  0.43120000  0.48560000  1.0 -0.0682658375
C  C44  1  0.41130000  0.46360000  0.54040000  1.0 -0.120915441
C  C45  1  0.36620000  0.50680000  0.68450000  1.0 0.0520337787
C  C46  1  0.76230000  0.66190000  0.31080000  1.0 0.0779125369
C  C47  1  0.80840000  0.75990000  0.30580000  1.0 -0.187503356
C  C48  1  0.46740000  0.39640000  0.52190000  1.0 -0.0843283194
C  C49  1  0.43800000  0.42440000  0.57460000  1.0 -0.0682658375
C  C50  1  0.56880000  0.01500000  0.48560000  1.0 -0.0682658375
C  C51  1  0.53640000  0.94770000  0.54040000  1.0 -0.120915441
C  C52  1  0.49320000  0.85940000  0.68450000  1.0 0.0520337787
C  C53  1  0.33810000  0.10040000  0.31080000  1.0 0.0779125369
C  C54  1  0.24010000  0.04850000  0.30580000  1.0 -0.187503356
C  C55  1  0.60360000  0.07100000  0.52190000  1.0 -0.0843283194
C  C56  1  0.57560000  0.01360000  0.57460000  1.0 -0.0682658375
C  C57  1  0.98500000  0.55380000  0.48560000  1.0 -0.0682658375
C  C58  1  0.05230000  0.58870000  0.54040000  1.0 -0.120915441
C  C59  1  0.14060000  0.63380000  0.68450000  1.0 0.0520337787
C  C60  1  0.89960000  0.23770000  0.31080000  1.0 0.0779125369
C  C61  1  0.95150000  0.19160000  0.30580000  1.0 -0.187503356
C  C62  1  0.92900000  0.53260000  0.52190000  1.0 -0.0843283194
C  C63  1  0.98640000  0.56200000  0.57460000  1.0 -0.0682658375
C  C64  1  0.55380000  0.56880000  0.98560000  1.0 -0.0682658375
C  C65  1  0.58870000  0.53640000  0.04040000  1.0 -0.120915441
C  C66  1  0.63380000  0.49320000  0.18450000  1.0 0.0520337787
C  C67  1  0.23770000  0.33810000  0.81080000  1.0 0.0779125369
C  C68  1  0.19160000  0.24010000  0.80580000  1.0 -0.187503356
C  C69  1  0.53260000  0.60360000  0.02190000  1.0 -0.0843283194
C  C70  1  0.56200000  0.57560000  0.07460000  1.0 -0.0682658375
C  C71  1  0.43120000  0.98500000  0.98560000  1.0 -0.0682658375
C  C72  1  0.46360000  0.05230000  0.04040000  1.0 -0.120915441
C  C73  1  0.50680000  0.14060000  0.18450000  1.0 0.0520337787
C  C74  1  0.66190000  0.89960000  0.81080000  1.0 0.0779125369
C  C75  1  0.75990000  0.95150000  0.80580000  1.0 -0.187503356
C  C76  1  0.39640000  0.92900000  0.02190000  1.0 -0.0843283194
C  C77  1  0.42440000  0.98640000  0.07460000  1.0 -0.0682658375
C  C78  1  0.01500000  0.44620000  0.98560000  1.0 -0.0682658375
C  C79  1  0.94770000  0.41130000  0.04040000  1.0 -0.120915441
C  C80  1  0.85940000  0.36620000  0.18450000  1.0 0.0520337787
C  C81  1  0.10040000  0.76230000  0.81080000  1.0 0.0779125369
C  C82  1  0.04850000  0.80840000  0.80580000  1.0 -0.187503356
C  C83  1  0.07100000  0.46740000  0.02190000  1.0 -0.0843283194
C  C84  1  0.01360000  0.43800000  0.07460000  1.0 -0.0682658375
C  C85  1  0.90380000  0.80760000  0.30240000  1.0 0.0520337787
C  C86  1  0.95530000  0.91060000  0.30250000  1.0 0.3763225865
C  C87  1  0.90380000  0.09620000  0.30240000  1.0 0.0520337787
C  C88  1  0.95530000  0.04470000  0.30250000  1.0 0.3763225865
C  C89  1  0.19240000  0.09620000  0.30240000  1.0 0.0520337787
C  C90  1  0.08940000  0.04470000  0.30250000  1.0 0.3763225865
C  C91  1  0.09620000  0.19240000  0.80240000  1.0 0.0520337787
C  C92  1  0.04470000  0.08940000  0.80250000  1.0 0.3763225865
C  C93  1  0.09620000  0.90380000  0.80240000  1.0 0.0520337787
C  C94  1  0.04470000  0.95530000  0.80250000  1.0 0.3763225865
C  C95  1  0.80760000  0.90380000  0.80240000  1.0 0.0520337787
C  C96  1  0.91060000  0.95530000  0.80250000  1.0 0.3763225865
C  C97  1  0.86170000  0.43085000  0.41430000  1.0 0.5491960239
C  C98  1  0.93070000  0.46535000  0.47360000  1.0 -0.0229025435
C  C99  1  0.05350000  0.52675000  0.58550000  1.0 0.0779125369
C  C100  1  0.56915000  0.13830000  0.41430000  1.0 0.5491960239
C  C101  1  0.53465000  0.06930000  0.47360000  1.0 -0.0229025435
C  C102  1  0.47325000  0.94650000  0.58550000  1.0 0.0906938386
C  C103  1  0.56915000  0.43085000  0.41430000  1.0 0.5491960239
C  C104  1  0.53465000  0.46535000  0.47360000  1.0 -0.0229025435
C  C105  1  0.47325000  0.52675000  0.58550000  1.0 0.0779125369
C  C106  1  0.13830000  0.56915000  0.91430000  1.0 0.5491960239
C  C107  1  0.06930000  0.53465000  0.97360000  1.0 -0.0229025435
C  C108  1  0.94650000  0.47325000  0.08550000  1.0 0.0779125369
C  C109  1  0.43085000  0.86170000  0.91430000  1.0 0.5491960239
C  C110  1  0.46535000  0.93070000  0.97360000  1.0 -0.0229025435
C  C111  1  0.52675000  0.05350000  0.08550000  1.0 0.0779125369
C  C112  1  0.43085000  0.56915000  0.91430000  1.0 0.5491960239
C  C113  1  0.46535000  0.53465000  0.97360000  1.0 -0.0229025435
C  C114  1  0.52675000  0.47325000  0.08550000  1.0 0.0779125369
N  N1  1  0.18710000  0.55230000  0.73950000  1.0 -0.1998681384
N  N2  1  0.36520000  0.81290000  0.73950000  1.0 -0.1998681384
N  N3  1  0.44770000  0.63480000  0.73950000  1.0 -0.1998681384
N  N4  1  0.81290000  0.44770000  0.23950000  1.0 -0.1998681384
N  N5  1  0.63480000  0.18710000  0.23950000  1.0 -0.1998681384
N  N6  1  0.55230000  0.36520000  0.23950000  1.0 -0.1998681384
N  N7  1  0.36520000  0.55230000  0.73950000  1.0 -0.1998681384
N  N8  1  0.44770000  0.81290000  0.73950000  1.0 -0.1998681384
N  N9  1  0.18710000  0.63480000  0.73950000  1.0 -0.1998681384
N  N10  1  0.63480000  0.44770000  0.23950000  1.0 -0.1998681384
N  N11  1  0.55230000  0.18710000  0.23950000  1.0 -0.1998681384
N  N12  1  0.81290000  0.36520000  0.23950000  1.0 -0.1998681384
N  N13  1  0.80710000  0.61420000  0.30710000  1.0 -0.2725940454
N  N14  1  0.80710000  0.19290000  0.30710000  1.0 -0.2725940454
N  N15  1  0.38580000  0.19290000  0.30710000  1.0 -0.2725940454
N  N16  1  0.19290000  0.38580000  0.80710000  1.0 -0.2725940454
N  N17  1  0.19290000  0.80710000  0.80710000  1.0 -0.2725940454
N  N18  1  0.61420000  0.80710000  0.80710000  1.0 -0.2725940454
N  N19  1  0.11080000  0.55540000  0.64960000  1.0 -0.0591820548
N  N20  1  0.44460000  0.88920000  0.64960000  1.0 -0.0591820548
N  N21  1  0.44460000  0.55540000  0.64960000  1.0 -0.0591820548
N  N22  1  0.88920000  0.44460000  0.14960000  1.0 -0.0591820548
N  N23  1  0.55540000  0.11080000  0.14960000  1.0 -0.0591820548
N  N24  1  0.55540000  0.44460000  0.14960000  1.0 -0.0591820548
N  N25  1  0.90650000  0.95325000  0.30230000  1.0 -0.4346811283
N  N26  1  0.04675000  0.09350000  0.30230000  1.0 -0.4346811283
N  N27  1  0.04675000  0.95325000  0.30230000  1.0 -0.4346811283
N  N28  1  0.09350000  0.04675000  0.80230000  1.0 -0.4346811283
N  N29  1  0.95325000  0.90650000  0.80230000  1.0 -0.4346811283
N  N30  1  0.95325000  0.04675000  0.80230000  1.0 -0.4346811283
O  O1  1  0.83400000  0.48540000  0.39300000  1.0 -0.5294036227
O  O2  1  0.65140000  0.16600000  0.39300000  1.0 -0.5294036227
O  O3  1  0.51460000  0.34860000  0.39300000  1.0 -0.5294036227
O  O4  1  0.16600000  0.51460000  0.89300000  1.0 -0.5294036227
O  O5  1  0.34860000  0.83400000  0.89300000  1.0 -0.5294036227
O  O6  1  0.48540000  0.65140000  0.89300000  1.0 -0.5294036227
O  O7  1  0.65140000  0.48540000  0.39300000  1.0 -0.5294036227
O  O8  1  0.51460000  0.16600000  0.39300000  1.0 -0.5294036227
O  O9  1  0.83400000  0.34860000  0.39300000  1.0 -0.5294036227
O  O10  1  0.34860000  0.51460000  0.89300000  1.0 -0.5294036227
O  O11  1  0.48540000  0.83400000  0.89300000  1.0 -0.5294036227
O  O12  1  0.16600000  0.65140000  0.89300000  1.0 -0.5294036227
O  O13  1  0.66666667  0.33333333  0.34160000  1.0 -0.7468301463
O  O14  1  0.33333333  0.66666667  0.84160000  1.0 -0.7468301463
