# DDEC6 charges by PACMAN v1.1 (https://github.com/mtap-research/PACMAN-charge/)
data_ZOHDIM_ASR_pacman
_symmetry_space_group_name_H-M   'P 1'
_cell_length_a   16.75670000
_cell_length_b   16.75670000
_cell_length_c   19.03430000
_cell_angle_alpha   90.00000000
_cell_angle_beta   90.00000000
_cell_angle_gamma   120.00000000
_symmetry_Int_Tables_number   1
_chemical_formula_structural   Co3H42C57N15O7
_chemical_formula_sum   'Co6 H84 C114 N30 O14'
_cell_volume   4628.54542732
_cell_formula_units_Z   2
loop_
 _symmetry_equiv_pos_site_id
 _symmetry_equiv_pos_as_xyz
  1  'x, y, z'
loop_
 _atom_site_type_symbol
 _atom_site_label
 _atom_site_symmetry_multiplicity
 _atom_site_fract_x
 _atom_site_fract_y
 _atom_site_fract_z
 _atom_site_occupancy
 _atom_site_charge
Co  Co1  1  0.73544000  0.47088000  0.28682000  1.0 0.8277665454
Co  Co2  1  0.73544000  0.26456000  0.28682000  1.0 0.8277665454
Co  Co3  1  0.52912000  0.26456000  0.28682000  1.0 0.8277665454
Co  Co4  1  0.26456000  0.52912000  0.78682000  1.0 0.8277665454
Co  Co5  1  0.26456000  0.73544000  0.78682000  1.0 0.8277665454
Co  Co6  1  0.47088000  0.73544000  0.78682000  1.0 0.8277665454
H  H1  1  0.97730000  0.37990000  0.42710000  1.0 0.0684068249
H  H2  1  0.07940000  0.43010000  0.52350000  1.0 0.0684068249
H  H3  1  0.13000000  0.44640000  0.63830000  1.0 0.1020907458
H  H4  1  0.93250000  0.63010000  0.27510000  1.0 0.1020907458
H  H5  1  0.01640000  0.79020000  0.27190000  1.0 0.1297407824
H  H6  1  0.91020000  0.33590000  0.46870000  1.0 0.0789312053
H  H7  1  0.01120000  0.38660000  0.56390000  1.0 0.0684068249
H  H8  1  0.40260000  0.02270000  0.42710000  1.0 0.0684068249
H  H9  1  0.35070000  0.92060000  0.52350000  1.0 0.0684068249
H  H10  1  0.31640000  0.87000000  0.63830000  1.0 0.1020907458
H  H11  1  0.69760000  0.06750000  0.27510000  1.0 0.1020907458
H  H12  1  0.77380000  0.98360000  0.27190000  1.0 0.1297407824
H  H13  1  0.42570000  0.08980000  0.46870000  1.0 0.0789312053
H  H14  1  0.37540000  0.98880000  0.56390000  1.0 0.0684068249
H  H15  1  0.62010000  0.59740000  0.42710000  1.0 0.0684068249
H  H16  1  0.56990000  0.64930000  0.52350000  1.0 0.0684068249
H  H17  1  0.55360000  0.68360000  0.63830000  1.0 0.1020907458
H  H18  1  0.36990000  0.30240000  0.27510000  1.0 0.1020907458
H  H19  1  0.20980000  0.22620000  0.27190000  1.0 0.1297407824
H  H20  1  0.66410000  0.57430000  0.46870000  1.0 0.0789312053
H  H21  1  0.61340000  0.62460000  0.56390000  1.0 0.0684068249
H  H22  1  0.02270000  0.62010000  0.92710000  1.0 0.0684068249
H  H23  1  0.92060000  0.56990000  0.02350000  1.0 0.0684068249
H  H24  1  0.87000000  0.55360000  0.13830000  1.0 0.1020907458
H  H25  1  0.06750000  0.36990000  0.77510000  1.0 0.1020907458
H  H26  1  0.98360000  0.20980000  0.77190000  1.0 0.1297407824
H  H27  1  0.08980000  0.66410000  0.96870000  1.0 0.0789312053
H  H28  1  0.98880000  0.61340000  0.06390000  1.0 0.0684068249
H  H29  1  0.59740000  0.97730000  0.92710000  1.0 0.0684068249
H  H30  1  0.64930000  0.07940000  0.02350000  1.0 0.0684068249
H  H31  1  0.68360000  0.13000000  0.13830000  1.0 0.1020907458
H  H32  1  0.30240000  0.93250000  0.77510000  1.0 0.1020907458
H  H33  1  0.22620000  0.01640000  0.77190000  1.0 0.1297407824
H  H34  1  0.57430000  0.91020000  0.96870000  1.0 0.0789312053
H  H35  1  0.62460000  0.01120000  0.06390000  1.0 0.0684068249
H  H36  1  0.37990000  0.40260000  0.92710000  1.0 0.0684068249
H  H37  1  0.43010000  0.35070000  0.02350000  1.0 0.0684068249
H  H38  1  0.44640000  0.31640000  0.13830000  1.0 0.1020907458
H  H39  1  0.63010000  0.69760000  0.77510000  1.0 0.1020907458
H  H40  1  0.79020000  0.77380000  0.77190000  1.0 0.1297407824
H  H41  1  0.33590000  0.42570000  0.96870000  1.0 0.0789312053
H  H42  1  0.38660000  0.37540000  0.06390000  1.0 0.0684068249
H  H43  1  0.40260000  0.37990000  0.42710000  1.0 0.0684068249
H  H44  1  0.35070000  0.43010000  0.52350000  1.0 0.0684068249
H  H45  1  0.31640000  0.44640000  0.63830000  1.0 0.1020907458
H  H46  1  0.69760000  0.63010000  0.27510000  1.0 0.1020907458
H  H47  1  0.77380000  0.79020000  0.27190000  1.0 0.1297407824
H  H48  1  0.42570000  0.33590000  0.46870000  1.0 0.0789312053
H  H49  1  0.37540000  0.38660000  0.56390000  1.0 0.0684068249
H  H50  1  0.62010000  0.02270000  0.42710000  1.0 0.0684068249
H  H51  1  0.56990000  0.92060000  0.52350000  1.0 0.0684068249
H  H52  1  0.55360000  0.87000000  0.63830000  1.0 0.1020907458
H  H53  1  0.36990000  0.06750000  0.27510000  1.0 0.1020907458
H  H54  1  0.20980000  0.98360000  0.27190000  1.0 0.1297407824
H  H55  1  0.66410000  0.08980000  0.46870000  1.0 0.0789312053
H  H56  1  0.61340000  0.98880000  0.56390000  1.0 0.0684068249
H  H57  1  0.97730000  0.59740000  0.42710000  1.0 0.0684068249
H  H58  1  0.07940000  0.64930000  0.52350000  1.0 0.0684068249
H  H59  1  0.13000000  0.68360000  0.63830000  1.0 0.1020907458
H  H60  1  0.93250000  0.30240000  0.27510000  1.0 0.1020907458
H  H61  1  0.01640000  0.22620000  0.27190000  1.0 0.1297407824
H  H62  1  0.91020000  0.57430000  0.46870000  1.0 0.0789312053
H  H63  1  0.01120000  0.62460000  0.56390000  1.0 0.0684068249
H  H64  1  0.59740000  0.62010000  0.92710000  1.0 0.0684068249
H  H65  1  0.64930000  0.56990000  0.02350000  1.0 0.0684068249
H  H66  1  0.68360000  0.55360000  0.13830000  1.0 0.1020907458
H  H67  1  0.30240000  0.36990000  0.77510000  1.0 0.1020907458
H  H68  1  0.22620000  0.20980000  0.77190000  1.0 0.1297407824
H  H69  1  0.57430000  0.66410000  0.96870000  1.0 0.0789312053
H  H70  1  0.62460000  0.61340000  0.06390000  1.0 0.0684068249
H  H71  1  0.37990000  0.97730000  0.92710000  1.0 0.0684068249
H  H72  1  0.43010000  0.07940000  0.02350000  1.0 0.0684068249
H  H73  1  0.44640000  0.13000000  0.13830000  1.0 0.1020907458
H  H74  1  0.63010000  0.93250000  0.77510000  1.0 0.1020907458
H  H75  1  0.79020000  0.01640000  0.77190000  1.0 0.1297407824
H  H76  1  0.33590000  0.91020000  0.96870000  1.0 0.0789312053
H  H77  1  0.38660000  0.01120000  0.06390000  1.0 0.0684068249
H  H78  1  0.02270000  0.40260000  0.92710000  1.0 0.0684068249
H  H79  1  0.92060000  0.35070000  0.02350000  1.0 0.0684068249
H  H80  1  0.87000000  0.31640000  0.13830000  1.0 0.1020907458
H  H81  1  0.06750000  0.69760000  0.77510000  1.0 0.1020907458
H  H82  1  0.98360000  0.77380000  0.77190000  1.0 0.1297407824
H  H83  1  0.08980000  0.42570000  0.96870000  1.0 0.0789312053
H  H84  1  0.98880000  0.37540000  0.06390000  1.0 0.0684068249
C  C1  1  0.98140000  0.42790000  0.45620000  1.0 -0.0579835066
C  C2  1  0.04300000  0.45770000  0.51410000  1.0 -0.0437688104
C  C3  1  0.14010000  0.50543000  0.65144000  1.0 0.0304288047
C  C4  1  0.90019000  0.66323000  0.27424000  1.0 0.0625346976
C  C5  1  0.95093000  0.75887000  0.27200000  1.0 -0.1741341673
C  C6  1  0.94240000  0.39930000  0.48110000  1.0 -0.0545788479
C  C7  1  0.00180000  0.42900000  0.53710000  1.0 -0.0334688177
C  C8  1  0.44650000  0.01860000  0.45620000  1.0 -0.0579835066
C  C9  1  0.41470000  0.95700000  0.51410000  1.0 -0.0437688104
C  C10  1  0.36533000  0.85990000  0.65144000  1.0 0.0304288047
C  C11  1  0.76304000  0.09981000  0.27424000  1.0 0.0625346976
C  C12  1  0.80794000  0.04907000  0.27200000  1.0 -0.1741341673
C  C13  1  0.45690000  0.05760000  0.48110000  1.0 -0.0579835066
C  C14  1  0.42720000  0.99820000  0.53710000  1.0 -0.0334688177
C  C15  1  0.57210000  0.55350000  0.45620000  1.0 -0.0579835066
C  C16  1  0.54230000  0.58530000  0.51410000  1.0 -0.0437688104
C  C17  1  0.49457000  0.63467000  0.65144000  1.0 0.0304288047
C  C18  1  0.33677000  0.23696000  0.27424000  1.0 0.0625346976
C  C19  1  0.24113000  0.19206000  0.27200000  1.0 -0.1741341673
C  C20  1  0.60070000  0.54310000  0.48110000  1.0 -0.0545788479
C  C21  1  0.57100000  0.57280000  0.53710000  1.0 -0.0334688177
C  C22  1  0.01860000  0.57210000  0.95620000  1.0 -0.0579835066
C  C23  1  0.95700000  0.54230000  0.01410000  1.0 -0.0437688104
C  C24  1  0.85990000  0.49457000  0.15144000  1.0 0.0304288047
C  C25  1  0.09981000  0.33677000  0.77424000  1.0 0.0625346976
C  C26  1  0.04907000  0.24113000  0.77200000  1.0 -0.1741341673
C  C27  1  0.05760000  0.60070000  0.98110000  1.0 -0.0579835066
C  C28  1  0.99820000  0.57100000  0.03710000  1.0 -0.0334688177
C  C29  1  0.55350000  0.98140000  0.95620000  1.0 -0.0579835066
C  C30  1  0.58530000  0.04300000  0.01410000  1.0 -0.0437688104
C  C31  1  0.63467000  0.14010000  0.15144000  1.0 0.0304288047
C  C32  1  0.23696000  0.90019000  0.77424000  1.0 0.0625346976
C  C33  1  0.19206000  0.95093000  0.77200000  1.0 -0.1741341673
C  C34  1  0.54310000  0.94240000  0.98110000  1.0 -0.0545788479
C  C35  1  0.57280000  0.00180000  0.03710000  1.0 -0.0334688177
C  C36  1  0.42790000  0.44650000  0.95620000  1.0 -0.0579835066
C  C37  1  0.45770000  0.41470000  0.01410000  1.0 -0.0437688104
C  C38  1  0.50543000  0.36533000  0.15144000  1.0 0.0304288047
C  C39  1  0.66323000  0.76304000  0.77424000  1.0 0.0625346976
C  C40  1  0.75887000  0.80794000  0.77200000  1.0 -0.1741341673
C  C41  1  0.39930000  0.45690000  0.98110000  1.0 -0.0579835066
C  C42  1  0.42900000  0.42720000  0.03710000  1.0 -0.0334688177
C  C43  1  0.44650000  0.42790000  0.45620000  1.0 -0.0579835066
C  C44  1  0.41470000  0.45770000  0.51410000  1.0 -0.0437688104
C  C45  1  0.36533000  0.50543000  0.65144000  1.0 0.0304288047
C  C46  1  0.76304000  0.66323000  0.27424000  1.0 0.0625346976
C  C47  1  0.80794000  0.75887000  0.27200000  1.0 -0.1741341673
C  C48  1  0.45690000  0.39930000  0.48110000  1.0 -0.0579835066
C  C49  1  0.42720000  0.42900000  0.53710000  1.0 -0.0334688177
C  C50  1  0.57210000  0.01860000  0.45620000  1.0 -0.0579835066
C  C51  1  0.54230000  0.95700000  0.51410000  1.0 -0.0437688104
C  C52  1  0.49457000  0.85990000  0.65144000  1.0 0.0304288047
C  C53  1  0.33677000  0.09981000  0.27424000  1.0 0.0625346976
C  C54  1  0.24113000  0.04907000  0.27200000  1.0 -0.1741341673
C  C55  1  0.60070000  0.05760000  0.48110000  1.0 -0.0579835066
C  C56  1  0.57100000  0.99820000  0.53710000  1.0 -0.0334688177
C  C57  1  0.98140000  0.55350000  0.45620000  1.0 -0.0579835066
C  C58  1  0.04300000  0.58530000  0.51410000  1.0 -0.0437688104
C  C59  1  0.14010000  0.63467000  0.65144000  1.0 0.0304288047
C  C60  1  0.90019000  0.23696000  0.27424000  1.0 0.0625346976
C  C61  1  0.95093000  0.19206000  0.27200000  1.0 -0.1741341673
C  C62  1  0.94240000  0.54310000  0.48110000  1.0 -0.0545788479
C  C63  1  0.00180000  0.57280000  0.53710000  1.0 -0.0334688177
C  C64  1  0.55350000  0.57210000  0.95620000  1.0 -0.0579835066
C  C65  1  0.58530000  0.54230000  0.01410000  1.0 -0.0437688104
C  C66  1  0.63467000  0.49457000  0.15144000  1.0 0.0304288047
C  C67  1  0.23696000  0.33677000  0.77424000  1.0 0.0625346976
C  C68  1  0.19206000  0.24113000  0.77200000  1.0 -0.1741341673
C  C69  1  0.54310000  0.60070000  0.98110000  1.0 -0.0579835066
C  C70  1  0.57280000  0.57100000  0.03710000  1.0 -0.0334688177
C  C71  1  0.42790000  0.98140000  0.95620000  1.0 -0.0579835066
C  C72  1  0.45770000  0.04300000  0.01410000  1.0 -0.0437688104
C  C73  1  0.50543000  0.14010000  0.15144000  1.0 0.0304288047
C  C74  1  0.66323000  0.90019000  0.77424000  1.0 0.0625346976
C  C75  1  0.75887000  0.95093000  0.77200000  1.0 -0.1741341673
C  C76  1  0.39930000  0.94240000  0.98110000  1.0 -0.0579835066
C  C77  1  0.42900000  0.00180000  0.03710000  1.0 -0.0334688177
C  C78  1  0.01860000  0.44650000  0.95620000  1.0 -0.0579835066
C  C79  1  0.95700000  0.41470000  0.01410000  1.0 -0.0437688104
C  C80  1  0.85990000  0.36533000  0.15144000  1.0 0.0304288047
C  C81  1  0.09981000  0.76304000  0.77424000  1.0 0.0625346976
C  C82  1  0.04907000  0.80794000  0.77200000  1.0 -0.1741341673
C  C83  1  0.05760000  0.45690000  0.98110000  1.0 -0.0579835066
C  C84  1  0.99820000  0.42720000  0.03710000  1.0 -0.0334688177
C  C85  1  0.90399000  0.80798000  0.27010000  1.0 0.0484037682
C  C86  1  0.95518000  0.91036000  0.26880000  1.0 0.3731715558
C  C87  1  0.90399000  0.09601000  0.27010000  1.0 0.0484037682
C  C88  1  0.95518000  0.04482000  0.26880000  1.0 0.3731715558
C  C89  1  0.19202000  0.09601000  0.27010000  1.0 0.0484037682
C  C90  1  0.08964000  0.04482000  0.26880000  1.0 0.3731715558
C  C91  1  0.09601000  0.19202000  0.77010000  1.0 0.0484037682
C  C92  1  0.04482000  0.08964000  0.76880000  1.0 0.3731715558
C  C93  1  0.09601000  0.90399000  0.77010000  1.0 0.0484037682
C  C94  1  0.04482000  0.95518000  0.76880000  1.0 0.3731715558
C  C95  1  0.80798000  0.90399000  0.77010000  1.0 0.0484037682
C  C96  1  0.91036000  0.95518000  0.76880000  1.0 0.3731715558
C  C97  1  0.85960000  0.42980000  0.38173000  1.0 0.5286412614
C  C98  1  0.92940000  0.46470000  0.44140000  1.0 -0.0437688104
C  C99  1  0.04930000  0.52465000  0.55460000  1.0 0.0484037682
C  C100  1  0.57020000  0.14040000  0.38173000  1.0 0.5286412614
C  C101  1  0.53530000  0.07060000  0.44140000  1.0 -0.0437688104
C  C102  1  0.47535000  0.95070000  0.55460000  1.0 0.0484037682
C  C103  1  0.57020000  0.42980000  0.38173000  1.0 0.5286412614
C  C104  1  0.53530000  0.46470000  0.44140000  1.0 -0.0437688104
C  C105  1  0.47535000  0.52465000  0.55460000  1.0 0.0484037682
C  C106  1  0.14040000  0.57020000  0.88173000  1.0 0.5286412614
C  C107  1  0.07060000  0.53530000  0.94140000  1.0 -0.0437688104
C  C108  1  0.95070000  0.47535000  0.05460000  1.0 0.0484037682
C  C109  1  0.42980000  0.85960000  0.88173000  1.0 0.5286412614
C  C110  1  0.46470000  0.92940000  0.94140000  1.0 -0.0437688104
C  C111  1  0.52465000  0.04930000  0.05460000  1.0 0.0484037682
C  C112  1  0.42980000  0.57020000  0.88173000  1.0 0.5286412614
C  C113  1  0.46470000  0.53530000  0.94140000  1.0 -0.0437688104
C  C114  1  0.52465000  0.47535000  0.05460000  1.0 0.0484037682
N  N1  1  0.18685000  0.55179000  0.70648000  1.0 -0.1967732233
N  N2  1  0.36494000  0.81315000  0.70648000  1.0 -0.1967732233
N  N3  1  0.44821000  0.63506000  0.70648000  1.0 -0.1967732233
N  N4  1  0.81315000  0.44821000  0.20648000  1.0 -0.1967732233
N  N5  1  0.63506000  0.18685000  0.20648000  1.0 -0.1967732233
N  N6  1  0.55179000  0.36494000  0.20648000  1.0 -0.1967732233
N  N7  1  0.36494000  0.55179000  0.70648000  1.0 -0.1967732233
N  N8  1  0.44821000  0.81315000  0.70648000  1.0 -0.1967732233
N  N9  1  0.18685000  0.63506000  0.70648000  1.0 -0.1967732233
N  N10  1  0.63506000  0.44821000  0.20648000  1.0 -0.1967732233
N  N11  1  0.55179000  0.18685000  0.20648000  1.0 -0.1967732233
N  N12  1  0.81315000  0.36494000  0.20648000  1.0 -0.1967732233
N  N13  1  0.80776000  0.61552000  0.27514000  1.0 -0.2401464727
N  N14  1  0.80776000  0.19224000  0.27514000  1.0 -0.2401464727
N  N15  1  0.38448000  0.19224000  0.27514000  1.0 -0.2401464727
N  N16  1  0.19224000  0.38448000  0.77514000  1.0 -0.2401464727
N  N17  1  0.19224000  0.80776000  0.77514000  1.0 -0.2401464727
N  N18  1  0.61552000  0.80776000  0.77514000  1.0 -0.2401464727
N  N19  1  0.10790000  0.55395000  0.61571000  1.0 -0.1586097402
N  N20  1  0.44605000  0.89210000  0.61571000  1.0 -0.1586097402
N  N21  1  0.44605000  0.55395000  0.61571000  1.0 -0.1586097402
N  N22  1  0.89210000  0.44605000  0.11571000  1.0 -0.1586097402
N  N23  1  0.55395000  0.10790000  0.11571000  1.0 -0.1586097402
N  N24  1  0.55395000  0.44605000  0.11571000  1.0 -0.1586097402
N  N25  1  0.90560000  0.95280000  0.26840000  1.0 -0.4271128994
N  N26  1  0.04720000  0.09440000  0.26840000  1.0 -0.4271128994
N  N27  1  0.04720000  0.95280000  0.26840000  1.0 -0.4271128994
N  N28  1  0.09440000  0.04720000  0.76840000  1.0 -0.4271128994
N  N29  1  0.95280000  0.90560000  0.76840000  1.0 -0.4271128994
N  N30  1  0.95280000  0.04720000  0.76840000  1.0 -0.4271128994
O  O1  1  0.83343000  0.48392000  0.36099000  1.0 -0.4985622686
O  O2  1  0.65049000  0.16657000  0.36099000  1.0 -0.4985622686
O  O3  1  0.51608000  0.34951000  0.36099000  1.0 -0.4985622686
O  O4  1  0.16657000  0.51608000  0.86099000  1.0 -0.4985622686
O  O5  1  0.34951000  0.83343000  0.86099000  1.0 -0.4985622686
O  O6  1  0.48392000  0.65049000  0.86099000  1.0 -0.4985622686
O  O7  1  0.65049000  0.48392000  0.36099000  1.0 -0.4985622686
O  O8  1  0.51608000  0.16657000  0.36099000  1.0 -0.4985622686
O  O9  1  0.83343000  0.34951000  0.36099000  1.0 -0.4985622686
O  O10  1  0.34951000  0.51608000  0.86099000  1.0 -0.4985622686
O  O11  1  0.48392000  0.83343000  0.86099000  1.0 -0.4985622686
O  O12  1  0.16657000  0.65049000  0.86099000  1.0 -0.4985622686
O  O13  1  0.66666667  0.33333333  0.30769000  1.0 -0.7672351819
O  O14  1  0.33333333  0.66666667  0.80769000  1.0 -0.7672351819
