# DDEC6 charges by PACMAN v1.1 (https://github.com/mtap-research/PACMAN-charge/)
data_ZOHDOS_ASR_pacman
_symmetry_space_group_name_H-M   'P 1'
_cell_length_a   16.62670000
_cell_length_b   16.62670000
_cell_length_c   28.97950000
_cell_angle_alpha   90.00000000
_cell_angle_beta   90.00000000
_cell_angle_gamma   120.00000000
_symmetry_Int_Tables_number   1
_chemical_formula_structural   Co3H66C87N15O7
_chemical_formula_sum   'Co6 H132 C174 N30 O14'
_cell_volume   6937.98954872
_cell_formula_units_Z   2
loop_
 _symmetry_equiv_pos_site_id
 _symmetry_equiv_pos_as_xyz
  1  'x, y, z'
loop_
 _atom_site_type_symbol
 _atom_site_label
 _atom_site_symmetry_multiplicity
 _atom_site_fract_x
 _atom_site_fract_y
 _atom_site_fract_z
 _atom_site_occupancy
 _atom_site_charge
Co  Co1  1  0.73558000  0.47116000  0.71581000  1.0 0.7992913592
Co  Co2  1  0.73558000  0.26442000  0.71581000  1.0 0.7992913592
Co  Co3  1  0.52884000  0.26442000  0.71581000  1.0 0.7992913592
Co  Co4  1  0.26442000  0.52884000  0.21581000  1.0 0.7992913592
Co  Co5  1  0.26442000  0.73558000  0.21581000  1.0 0.7992913592
Co  Co6  1  0.47116000  0.73558000  0.21581000  1.0 0.7992913592
H  H1  1  0.69700000  0.63040000  0.72480000  1.0 0.0919060502
H  H2  1  0.77320000  0.78940000  0.72870000  1.0 0.1272736358
H  H3  1  0.67970000  0.55850000  0.59190000  1.0 0.0726756918
H  H4  1  0.64910000  0.58960000  0.51630000  1.0 0.0510778202
H  H5  1  0.57750000  0.65370000  0.47100000  1.0 0.0797887068
H  H6  1  0.54550000  0.68170000  0.39440000  1.0 0.0797887068
H  H7  1  0.31110000  0.45280000  0.31720000  1.0 0.0974744502
H  H8  1  0.64810000  0.58510000  0.60280000  1.0 0.0797887068
H  H9  1  0.60000000  0.62430000  0.53560000  1.0 0.0595836278
H  H10  1  0.62150000  0.60290000  0.45320000  1.0 0.0726756918
H  H11  1  0.59200000  0.60990000  0.37350000  1.0 0.0919060502
H  H12  1  0.93340000  0.30300000  0.72480000  1.0 0.0919060502
H  H13  1  0.01620000  0.22680000  0.72870000  1.0 0.1272736358
H  H14  1  0.87880000  0.32030000  0.59190000  1.0 0.0726756918
H  H15  1  0.94050000  0.35090000  0.51630000  1.0 0.0510778202
H  H16  1  0.07620000  0.42250000  0.47100000  1.0 0.0797887068
H  H17  1  0.13620000  0.45450000  0.39440000  1.0 0.0797887068
H  H18  1  0.14170000  0.68890000  0.31720000  1.0 0.0974744502
H  H19  1  0.93700000  0.35190000  0.60280000  1.0 0.0797887068
H  H20  1  0.02430000  0.40000000  0.53560000  1.0 0.0595836278
H  H21  1  0.98140000  0.37850000  0.45320000  1.0 0.0726756918
H  H22  1  0.01790000  0.40800000  0.37350000  1.0 0.0919060502
H  H23  1  0.36960000  0.06660000  0.72480000  1.0 0.0919060502
H  H24  1  0.21060000  0.98380000  0.72870000  1.0 0.1272736358
H  H25  1  0.44150000  0.12120000  0.59190000  1.0 0.0726756918
H  H26  1  0.41040000  0.05950000  0.51630000  1.0 0.0510778202
H  H27  1  0.34630000  0.92380000  0.47100000  1.0 0.0797887068
H  H28  1  0.31830000  0.86380000  0.39440000  1.0 0.0797887068
H  H29  1  0.54720000  0.85830000  0.31720000  1.0 0.0974744502
H  H30  1  0.41490000  0.06300000  0.60280000  1.0 0.0797887068
H  H31  1  0.37570000  0.97570000  0.53560000  1.0 0.0595836278
H  H32  1  0.39710000  0.01860000  0.45320000  1.0 0.0726756918
H  H33  1  0.39010000  0.98210000  0.37350000  1.0 0.0919060502
H  H34  1  0.30300000  0.36960000  0.22480000  1.0 0.0919060502
H  H35  1  0.22680000  0.21060000  0.22870000  1.0 0.1272736358
H  H36  1  0.32030000  0.44150000  0.09190000  1.0 0.0726756918
H  H37  1  0.35090000  0.41040000  0.01630000  1.0 0.0510778202
H  H38  1  0.42250000  0.34630000  0.97100000  1.0 0.0797887068
H  H39  1  0.45450000  0.31830000  0.89440000  1.0 0.0919060502
H  H40  1  0.68890000  0.54720000  0.81720000  1.0 0.0974744502
H  H41  1  0.35190000  0.41490000  0.10280000  1.0 0.0797887068
H  H42  1  0.40000000  0.37570000  0.03560000  1.0 0.0595836278
H  H43  1  0.37850000  0.39710000  0.95320000  1.0 0.0726756918
H  H44  1  0.40800000  0.39010000  0.87350000  1.0 0.0919060502
H  H45  1  0.06660000  0.69700000  0.22480000  1.0 0.0919060502
H  H46  1  0.98380000  0.77320000  0.22870000  1.0 0.1272736358
H  H47  1  0.12120000  0.67970000  0.09190000  1.0 0.0726756918
H  H48  1  0.05950000  0.64910000  0.01630000  1.0 0.0510778202
H  H49  1  0.92380000  0.57750000  0.97100000  1.0 0.0797887068
H  H50  1  0.86380000  0.54550000  0.89440000  1.0 0.0919060502
H  H51  1  0.85830000  0.31110000  0.81720000  1.0 0.0974744502
H  H52  1  0.06300000  0.64810000  0.10280000  1.0 0.0797887068
H  H53  1  0.97570000  0.60000000  0.03560000  1.0 0.0595836278
H  H54  1  0.01860000  0.62150000  0.95320000  1.0 0.0726756918
H  H55  1  0.98210000  0.59200000  0.87350000  1.0 0.0919060502
H  H56  1  0.63040000  0.93340000  0.22480000  1.0 0.0919060502
H  H57  1  0.78940000  0.01620000  0.22870000  1.0 0.1272736358
H  H58  1  0.55850000  0.87880000  0.09190000  1.0 0.0726756918
H  H59  1  0.58960000  0.94050000  0.01630000  1.0 0.0510778202
H  H60  1  0.65370000  0.07620000  0.97100000  1.0 0.0797887068
H  H61  1  0.68170000  0.13620000  0.89440000  1.0 0.0919060502
H  H62  1  0.45280000  0.14170000  0.81720000  1.0 0.0974744502
H  H63  1  0.58510000  0.93700000  0.10280000  1.0 0.0797887068
H  H64  1  0.62430000  0.02430000  0.03560000  1.0 0.0595836278
H  H65  1  0.60290000  0.98140000  0.95320000  1.0 0.0726756918
H  H66  1  0.60990000  0.01790000  0.87350000  1.0 0.0919060502
H  H67  1  0.93340000  0.63040000  0.72480000  1.0 0.0919060502
H  H68  1  0.01620000  0.78940000  0.72870000  1.0 0.1272736358
H  H69  1  0.87880000  0.55850000  0.59190000  1.0 0.0726756918
H  H70  1  0.94050000  0.58960000  0.51630000  1.0 0.0510778202
H  H71  1  0.07620000  0.65370000  0.47100000  1.0 0.0797887068
H  H72  1  0.13620000  0.68170000  0.39440000  1.0 0.0797887068
H  H73  1  0.14170000  0.45280000  0.31720000  1.0 0.0974744502
H  H74  1  0.93700000  0.58510000  0.60280000  1.0 0.0797887068
H  H75  1  0.02430000  0.62430000  0.53560000  1.0 0.0595836278
H  H76  1  0.98140000  0.60290000  0.45320000  1.0 0.0726756918
H  H77  1  0.01790000  0.60990000  0.37350000  1.0 0.0919060502
H  H78  1  0.36960000  0.30300000  0.72480000  1.0 0.0919060502
H  H79  1  0.21060000  0.22680000  0.72870000  1.0 0.1272736358
H  H80  1  0.44150000  0.32030000  0.59190000  1.0 0.0726756918
H  H81  1  0.41040000  0.35090000  0.51630000  1.0 0.0510778202
H  H82  1  0.34630000  0.42250000  0.47100000  1.0 0.0797887068
H  H83  1  0.31830000  0.45450000  0.39440000  1.0 0.0797887068
H  H84  1  0.54720000  0.68890000  0.31720000  1.0 0.0974744502
H  H85  1  0.41490000  0.35190000  0.60280000  1.0 0.0797887068
H  H86  1  0.37570000  0.40000000  0.53560000  1.0 0.0595836278
H  H87  1  0.39710000  0.37850000  0.45320000  1.0 0.0726756918
H  H88  1  0.39010000  0.40800000  0.37350000  1.0 0.0919060502
H  H89  1  0.69700000  0.06660000  0.72480000  1.0 0.0919060502
H  H90  1  0.77320000  0.98380000  0.72870000  1.0 0.1272736358
H  H91  1  0.67970000  0.12120000  0.59190000  1.0 0.0726756918
H  H92  1  0.64910000  0.05950000  0.51630000  1.0 0.0510778202
H  H93  1  0.57750000  0.92380000  0.47100000  1.0 0.0797887068
H  H94  1  0.54550000  0.86380000  0.39440000  1.0 0.0797887068
H  H95  1  0.31110000  0.85830000  0.31720000  1.0 0.0974744502
H  H96  1  0.64810000  0.06300000  0.60280000  1.0 0.0797887068
H  H97  1  0.60000000  0.97570000  0.53560000  1.0 0.0595836278
H  H98  1  0.62150000  0.01860000  0.45320000  1.0 0.0726756918
H  H99  1  0.59200000  0.98210000  0.37350000  1.0 0.0919060502
H  H100  1  0.06660000  0.36960000  0.22480000  1.0 0.0919060502
H  H101  1  0.98380000  0.21060000  0.22870000  1.0 0.1272736358
H  H102  1  0.12120000  0.44150000  0.09190000  1.0 0.0726756918
H  H103  1  0.05950000  0.41040000  0.01630000  1.0 0.0510778202
H  H104  1  0.92380000  0.34630000  0.97100000  1.0 0.0797887068
H  H105  1  0.86380000  0.31830000  0.89440000  1.0 0.0919060502
H  H106  1  0.85830000  0.54720000  0.81720000  1.0 0.0974744502
H  H107  1  0.06300000  0.41490000  0.10280000  1.0 0.0797887068
H  H108  1  0.97570000  0.37570000  0.03560000  1.0 0.0595836278
H  H109  1  0.01860000  0.39710000  0.95320000  1.0 0.0726756918
H  H110  1  0.98210000  0.39010000  0.87350000  1.0 0.0919060502
H  H111  1  0.63040000  0.69700000  0.22480000  1.0 0.0919060502
H  H112  1  0.78940000  0.77320000  0.22870000  1.0 0.1272736358
H  H113  1  0.55850000  0.67970000  0.09190000  1.0 0.0726756918
H  H114  1  0.58960000  0.64910000  0.01630000  1.0 0.0510778202
H  H115  1  0.65370000  0.57750000  0.97100000  1.0 0.0797887068
H  H116  1  0.68170000  0.54550000  0.89440000  1.0 0.0919060502
H  H117  1  0.45280000  0.31110000  0.81720000  1.0 0.0974744502
H  H118  1  0.58510000  0.64810000  0.10280000  1.0 0.0797887068
H  H119  1  0.62430000  0.60000000  0.03560000  1.0 0.0595836278
H  H120  1  0.60290000  0.62150000  0.95320000  1.0 0.0726756918
H  H121  1  0.60990000  0.59200000  0.87350000  1.0 0.0919060502
H  H122  1  0.30300000  0.93340000  0.22480000  1.0 0.0919060502
H  H123  1  0.22680000  0.01620000  0.22870000  1.0 0.1272736358
H  H124  1  0.32030000  0.87880000  0.09190000  1.0 0.0726756918
H  H125  1  0.35090000  0.94050000  0.01630000  1.0 0.0510778202
H  H126  1  0.42250000  0.07620000  0.97100000  1.0 0.0797887068
H  H127  1  0.45450000  0.13620000  0.89440000  1.0 0.0919060502
H  H128  1  0.68890000  0.14170000  0.81720000  1.0 0.0974744502
H  H129  1  0.35190000  0.93700000  0.10280000  1.0 0.0797887068
H  H130  1  0.40000000  0.02430000  0.03560000  1.0 0.0595836278
H  H131  1  0.37850000  0.98140000  0.95320000  1.0 0.0726756918
H  H132  1  0.40800000  0.01790000  0.87350000  1.0 0.0919060502
C  C1  1  0.76293000  0.66331000  0.72565000  1.0 0.0595836278
C  C2  1  0.80769000  0.75797000  0.72789000  1.0 -0.1799505882
C  C3  1  0.61950000  0.52250000  0.57890000  1.0 -0.0521040678
C  C4  1  0.60100000  0.54200000  0.53430000  1.0 -0.0382121853
C  C5  1  0.53600000  0.60360000  0.45190000  1.0 -0.0793003745
C  C6  1  0.51780000  0.62040000  0.40640000  1.0 -0.0928904297
C  C7  1  0.36108000  0.51137000  0.30790000  1.0 0.0797887068
C  C8  1  0.59700000  0.53840000  0.58600000  1.0 -0.0630236586
C  C9  1  0.57350000  0.56110000  0.54470000  1.0 -0.0382121853
C  C10  1  0.56010000  0.56790000  0.44140000  1.0 -0.0793003745
C  C11  1  0.54160000  0.57760000  0.39420000  1.0 -0.0793003745
C  C12  1  0.90038000  0.23707000  0.72565000  1.0 0.0595836278
C  C13  1  0.95028000  0.19231000  0.72789000  1.0 -0.1799505882
C  C14  1  0.90300000  0.38050000  0.57890000  1.0 -0.0521040678
C  C15  1  0.94100000  0.39900000  0.53430000  1.0 -0.0382121853
C  C16  1  0.06760000  0.46400000  0.45190000  1.0 -0.0793003745
C  C17  1  0.10260000  0.48220000  0.40640000  1.0 -0.0928904297
C  C18  1  0.15029000  0.63892000  0.30790000  1.0 0.0797887068
C  C19  1  0.94140000  0.40300000  0.58600000  1.0 -0.0630236586
C  C20  1  0.98760000  0.42650000  0.54470000  1.0 -0.0382121853
C  C21  1  0.00780000  0.43990000  0.44140000  1.0 -0.0793003745
C  C22  1  0.03600000  0.45840000  0.39420000  1.0 -0.0793003745
C  C23  1  0.33669000  0.09962000  0.72565000  1.0 0.0595836278
C  C24  1  0.24203000  0.04972000  0.72789000  1.0 -0.1799505882
C  C25  1  0.47750000  0.09700000  0.57890000  1.0 -0.0521040678
C  C26  1  0.45800000  0.05900000  0.53430000  1.0 -0.0382121853
C  C27  1  0.39640000  0.93240000  0.45190000  1.0 -0.0793003745
C  C28  1  0.37960000  0.89740000  0.40640000  1.0 -0.0928904297
C  C29  1  0.48863000  0.84971000  0.30790000  1.0 0.0797887068
C  C30  1  0.46160000  0.05860000  0.58600000  1.0 -0.0630236586
C  C31  1  0.43890000  0.01240000  0.54470000  1.0 -0.0382121853
C  C32  1  0.43210000  0.99220000  0.44140000  1.0 -0.0793003745
C  C33  1  0.42240000  0.96400000  0.39420000  1.0 -0.0793003745
C  C34  1  0.23707000  0.33669000  0.22565000  1.0 0.0595836278
C  C35  1  0.19231000  0.24203000  0.22789000  1.0 -0.1799505882
C  C36  1  0.38050000  0.47750000  0.07890000  1.0 -0.0521040678
C  C37  1  0.39900000  0.45800000  0.03430000  1.0 -0.0382121853
C  C38  1  0.46400000  0.39640000  0.95190000  1.0 -0.0793003745
C  C39  1  0.48220000  0.37960000  0.90640000  1.0 -0.0928904297
C  C40  1  0.63892000  0.48863000  0.80790000  1.0 0.0797887068
C  C41  1  0.40300000  0.46160000  0.08600000  1.0 -0.0630236586
C  C42  1  0.42650000  0.43890000  0.04470000  1.0 -0.0382121853
C  C43  1  0.43990000  0.43210000  0.94140000  1.0 -0.0793003745
C  C44  1  0.45840000  0.42240000  0.89420000  1.0 -0.0793003745
C  C45  1  0.09962000  0.76293000  0.22565000  1.0 0.0595836278
C  C46  1  0.04972000  0.80769000  0.22789000  1.0 -0.1799505882
C  C47  1  0.09700000  0.61950000  0.07890000  1.0 -0.0521040678
C  C48  1  0.05900000  0.60100000  0.03430000  1.0 -0.0382121853
C  C49  1  0.93240000  0.53600000  0.95190000  1.0 -0.0793003745
C  C50  1  0.89740000  0.51780000  0.90640000  1.0 -0.0928904297
C  C51  1  0.84971000  0.36108000  0.80790000  1.0 0.0797887068
C  C52  1  0.05860000  0.59700000  0.08600000  1.0 -0.0630236586
C  C53  1  0.01240000  0.57350000  0.04470000  1.0 -0.0382121853
C  C54  1  0.99220000  0.56010000  0.94140000  1.0 -0.0793003745
C  C55  1  0.96400000  0.54160000  0.89420000  1.0 -0.0793003745
C  C56  1  0.66331000  0.90038000  0.22565000  1.0 0.0595836278
C  C57  1  0.75797000  0.95028000  0.22789000  1.0 -0.1799505882
C  C58  1  0.52250000  0.90300000  0.07890000  1.0 -0.0521040678
C  C59  1  0.54200000  0.94100000  0.03430000  1.0 -0.0382121853
C  C60  1  0.60360000  0.06760000  0.95190000  1.0 -0.0793003745
C  C61  1  0.62040000  0.10260000  0.90640000  1.0 -0.0928904297
C  C62  1  0.51137000  0.15029000  0.80790000  1.0 0.0797887068
C  C63  1  0.53840000  0.94140000  0.08600000  1.0 -0.0630236586
C  C64  1  0.56110000  0.98760000  0.04470000  1.0 -0.0382121853
C  C65  1  0.56790000  0.00780000  0.94140000  1.0 -0.0793003745
C  C66  1  0.57760000  0.03600000  0.89420000  1.0 -0.0793003745
C  C67  1  0.90038000  0.66331000  0.72565000  1.0 0.0595836278
C  C68  1  0.95028000  0.75797000  0.72789000  1.0 -0.1799505882
C  C69  1  0.90300000  0.52250000  0.57890000  1.0 -0.0521040678
C  C70  1  0.94100000  0.54200000  0.53430000  1.0 -0.0382121853
C  C71  1  0.06760000  0.60360000  0.45190000  1.0 -0.0793003745
C  C72  1  0.10260000  0.62040000  0.40640000  1.0 -0.0928904297
C  C73  1  0.15029000  0.51137000  0.30790000  1.0 0.0797887068
C  C74  1  0.94140000  0.53840000  0.58600000  1.0 -0.0630236586
C  C75  1  0.98760000  0.56110000  0.54470000  1.0 -0.0382121853
C  C76  1  0.00780000  0.56790000  0.44140000  1.0 -0.0793003745
C  C77  1  0.03600000  0.57760000  0.39420000  1.0 -0.0793003745
C  C78  1  0.33669000  0.23707000  0.72565000  1.0 0.0595836278
C  C79  1  0.24203000  0.19231000  0.72789000  1.0 -0.1799505882
C  C80  1  0.47750000  0.38050000  0.57890000  1.0 -0.0521040678
C  C81  1  0.45800000  0.39900000  0.53430000  1.0 -0.0382121853
C  C82  1  0.39640000  0.46400000  0.45190000  1.0 -0.0793003745
C  C83  1  0.37960000  0.48220000  0.40640000  1.0 -0.0928904297
C  C84  1  0.48863000  0.63892000  0.30790000  1.0 0.0797887068
C  C85  1  0.46160000  0.40300000  0.58600000  1.0 -0.0630236586
C  C86  1  0.43890000  0.42650000  0.54470000  1.0 -0.0382121853
C  C87  1  0.43210000  0.43990000  0.44140000  1.0 -0.0793003745
C  C88  1  0.42240000  0.45840000  0.39420000  1.0 -0.0793003745
C  C89  1  0.76293000  0.09962000  0.72565000  1.0 0.0595836278
C  C90  1  0.80769000  0.04972000  0.72789000  1.0 -0.1799505882
C  C91  1  0.61950000  0.09700000  0.57890000  1.0 -0.0521040678
C  C92  1  0.60100000  0.05900000  0.53430000  1.0 -0.0382121853
C  C93  1  0.53600000  0.93240000  0.45190000  1.0 -0.0793003745
C  C94  1  0.51780000  0.89740000  0.40640000  1.0 -0.0928904297
C  C95  1  0.36108000  0.84971000  0.30790000  1.0 0.0797887068
C  C96  1  0.59700000  0.05860000  0.58600000  1.0 -0.0630236586
C  C97  1  0.57350000  0.01240000  0.54470000  1.0 -0.0382121853
C  C98  1  0.56010000  0.99220000  0.44140000  1.0 -0.0793003745
C  C99  1  0.54160000  0.96400000  0.39420000  1.0 -0.0793003745
C  C100  1  0.09962000  0.33669000  0.22565000  1.0 0.0595836278
C  C101  1  0.04972000  0.24203000  0.22789000  1.0 -0.1799505882
C  C102  1  0.09700000  0.47750000  0.07890000  1.0 -0.0521040678
C  C103  1  0.05900000  0.45800000  0.03430000  1.0 -0.0382121853
C  C104  1  0.93240000  0.39640000  0.95190000  1.0 -0.0793003745
C  C105  1  0.89740000  0.37960000  0.90640000  1.0 -0.0928904297
C  C106  1  0.84971000  0.48863000  0.80790000  1.0 0.0797887068
C  C107  1  0.05860000  0.46160000  0.08600000  1.0 -0.0630236586
C  C108  1  0.01240000  0.43890000  0.04470000  1.0 -0.0382121853
C  C109  1  0.99220000  0.43210000  0.94140000  1.0 -0.0793003745
C  C110  1  0.96400000  0.42240000  0.89420000  1.0 -0.0793003745
C  C111  1  0.66331000  0.76293000  0.22565000  1.0 0.0595836278
C  C112  1  0.75797000  0.80769000  0.22789000  1.0 -0.1799505882
C  C113  1  0.52250000  0.61950000  0.07890000  1.0 -0.0521040678
C  C114  1  0.54200000  0.60100000  0.03430000  1.0 -0.0382121853
C  C115  1  0.60360000  0.53600000  0.95190000  1.0 -0.0793003745
C  C116  1  0.62040000  0.51780000  0.90640000  1.0 -0.0928904297
C  C117  1  0.51137000  0.36108000  0.80790000  1.0 0.0797887068
C  C118  1  0.53840000  0.59700000  0.08600000  1.0 -0.0630236586
C  C119  1  0.56110000  0.57350000  0.04470000  1.0 -0.0382121853
C  C120  1  0.56790000  0.56010000  0.94140000  1.0 -0.0793003745
C  C121  1  0.57760000  0.54160000  0.89420000  1.0 -0.0793003745
C  C122  1  0.23707000  0.90038000  0.22565000  1.0 0.0595836278
C  C123  1  0.19231000  0.95028000  0.22789000  1.0 -0.1799505882
C  C124  1  0.38050000  0.90300000  0.07890000  1.0 -0.0521040678
C  C125  1  0.39900000  0.94100000  0.03430000  1.0 -0.0382121853
C  C126  1  0.46400000  0.06760000  0.95190000  1.0 -0.0793003745
C  C127  1  0.48220000  0.10260000  0.90640000  1.0 -0.0928904297
C  C128  1  0.63892000  0.15029000  0.80790000  1.0 0.0797887068
C  C129  1  0.40300000  0.94140000  0.08600000  1.0 -0.0630236586
C  C130  1  0.42650000  0.98760000  0.04470000  1.0 -0.0382121853
C  C131  1  0.43990000  0.00780000  0.94140000  1.0 -0.0793003745
C  C132  1  0.45840000  0.03600000  0.89420000  1.0 -0.0793003745
C  C133  1  0.90390000  0.80780000  0.72891000  1.0 0.0595836278
C  C134  1  0.95538000  0.91076000  0.72998000  1.0 0.348473044
C  C135  1  0.90390000  0.09610000  0.72891000  1.0 0.0595836278
C  C136  1  0.95538000  0.04462000  0.72998000  1.0 0.348473044
C  C137  1  0.19220000  0.09610000  0.72891000  1.0 0.0595836278
C  C138  1  0.08924000  0.04462000  0.72998000  1.0 0.348473044
C  C139  1  0.09610000  0.19220000  0.22891000  1.0 0.0595836278
C  C140  1  0.04462000  0.08924000  0.22998000  1.0 0.348473044
C  C141  1  0.09610000  0.90390000  0.22891000  1.0 0.0595836278
C  C142  1  0.04462000  0.95538000  0.22998000  1.0 0.348473044
C  C143  1  0.80780000  0.90390000  0.22891000  1.0 0.0595836278
C  C144  1  0.91076000  0.95538000  0.22998000  1.0 0.348473044
C  C145  1  0.57435000  0.42565000  0.65090000  1.0 0.5153944957
C  C146  1  0.54940000  0.45060000  0.60376000  1.0 -0.0521040678
C  C147  1  0.51000000  0.49000000  0.51628000  1.0 -0.0057456518
C  C148  1  0.49075000  0.50925000  0.46914000  1.0 0.0186690045
C  C149  1  0.45695000  0.54305000  0.37919000  1.0 0.0595836278
C  C150  1  0.85130000  0.42565000  0.65090000  1.0 0.5153944957
C  C151  1  0.90120000  0.45060000  0.60376000  1.0 -0.0521040678
C  C152  1  0.98000000  0.49000000  0.51628000  1.0 -0.0057456518
C  C153  1  0.01850000  0.50925000  0.46914000  1.0 0.0186690045
C  C154  1  0.08610000  0.54305000  0.37919000  1.0 0.0595836278
C  C155  1  0.57435000  0.14870000  0.65090000  1.0 0.5153944957
C  C156  1  0.54940000  0.09880000  0.60376000  1.0 -0.0521040678
C  C157  1  0.51000000  0.02000000  0.51628000  1.0 -0.0057456518
C  C158  1  0.49075000  0.98150000  0.46914000  1.0 0.0186690045
C  C159  1  0.45695000  0.91390000  0.37919000  1.0 0.0595836278
C  C160  1  0.42565000  0.57435000  0.15090000  1.0 0.514911102
C  C161  1  0.45060000  0.54940000  0.10376000  1.0 -0.0521040678
C  C162  1  0.49000000  0.51000000  0.01628000  1.0 -0.0044516531
C  C163  1  0.50925000  0.49075000  0.96914000  1.0 0.0186690045
C  C164  1  0.54305000  0.45695000  0.87919000  1.0 0.0595836278
C  C165  1  0.14870000  0.57435000  0.15090000  1.0 0.514911102
C  C166  1  0.09880000  0.54940000  0.10376000  1.0 -0.0521040678
C  C167  1  0.02000000  0.51000000  0.01628000  1.0 -0.0057456518
C  C168  1  0.98150000  0.49075000  0.96914000  1.0 0.0186690045
C  C169  1  0.91390000  0.45695000  0.87919000  1.0 0.0595836278
C  C170  1  0.42565000  0.85130000  0.15090000  1.0 0.514911102
C  C171  1  0.45060000  0.90120000  0.10376000  1.0 -0.0521040678
C  C172  1  0.49000000  0.98000000  0.01628000  1.0 -0.0044516531
C  C173  1  0.50925000  0.01850000  0.96914000  1.0 0.0186690045
C  C174  1  0.54305000  0.08610000  0.87919000  1.0 0.0595836278
N  N1  1  0.36445000  0.55177000  0.26923000  1.0 -0.2002762985
N  N2  1  0.18732000  0.63555000  0.26923000  1.0 -0.2002762985
N  N3  1  0.44823000  0.81268000  0.26923000  1.0 -0.2002762985
N  N4  1  0.63555000  0.44823000  0.76923000  1.0 -0.2002762985
N  N5  1  0.81268000  0.36445000  0.76923000  1.0 -0.2002762985
N  N6  1  0.55177000  0.18732000  0.76923000  1.0 -0.2002762985
N  N7  1  0.18732000  0.55177000  0.26923000  1.0 -0.2002762985
N  N8  1  0.44823000  0.63555000  0.26923000  1.0 -0.2002762985
N  N9  1  0.36445000  0.81268000  0.26923000  1.0 -0.2002762985
N  N10  1  0.81268000  0.44823000  0.76923000  1.0 -0.2002762985
N  N11  1  0.55177000  0.36445000  0.76923000  1.0 -0.2002762985
N  N12  1  0.63555000  0.18732000  0.76923000  1.0 -0.2002762985
N  N13  1  0.80699000  0.61398000  0.72456000  1.0 -0.2654840183
N  N14  1  0.80699000  0.19301000  0.72456000  1.0 -0.2654840183
N  N15  1  0.38602000  0.19301000  0.72456000  1.0 -0.2654840183
N  N16  1  0.19301000  0.38602000  0.22456000  1.0 -0.2654840183
N  N17  1  0.19301000  0.80699000  0.22456000  1.0 -0.2654840183
N  N18  1  0.61398000  0.80699000  0.22456000  1.0 -0.2654840183
N  N19  1  0.04760000  0.95240000  0.73017000  1.0 -0.4191736512
N  N20  1  0.90480000  0.95240000  0.73017000  1.0 -0.4191736512
N  N21  1  0.04760000  0.09520000  0.73017000  1.0 -0.4191736512
N  N22  1  0.95240000  0.04760000  0.23017000  1.0 -0.4191736512
N  N23  1  0.09520000  0.04760000  0.23017000  1.0 -0.4191736512
N  N24  1  0.95240000  0.90480000  0.23017000  1.0 -0.4191736512
N  N25  1  0.43710000  0.56290000  0.33304000  1.0 -0.1099188906
N  N26  1  0.12580000  0.56290000  0.33304000  1.0 -0.1099188906
N  N27  1  0.43710000  0.87420000  0.33304000  1.0 -0.1099188906
N  N28  1  0.56290000  0.43710000  0.83304000  1.0 -0.1099188906
N  N29  1  0.87420000  0.43710000  0.83304000  1.0 -0.1099188906
N  N30  1  0.56290000  0.12580000  0.83304000  1.0 -0.1099188906
O  O1  1  0.65055000  0.48412000  0.66743000  1.0 -0.4987218859
O  O2  1  0.83357000  0.34945000  0.66743000  1.0 -0.4987218859
O  O3  1  0.51588000  0.16643000  0.66743000  1.0 -0.4987218859
O  O4  1  0.34945000  0.51588000  0.16743000  1.0 -0.4987218859
O  O5  1  0.16643000  0.65055000  0.16743000  1.0 -0.4987218859
O  O6  1  0.48412000  0.83357000  0.16743000  1.0 -0.4987218859
O  O7  1  0.83357000  0.48412000  0.66743000  1.0 -0.4987218859
O  O8  1  0.51588000  0.34945000  0.66743000  1.0 -0.4987218859
O  O9  1  0.65055000  0.16643000  0.66743000  1.0 -0.4987218859
O  O10  1  0.16643000  0.51588000  0.16743000  1.0 -0.4987218859
O  O11  1  0.48412000  0.65055000  0.16743000  1.0 -0.4987218859
O  O12  1  0.34945000  0.83357000  0.16743000  1.0 -0.4987218859
O  O13  1  0.66666667  0.33333333  0.70192000  1.0 -0.7353744638
O  O14  1  0.33333333  0.66666667  0.20192000  1.0 -0.7341092956
