# DDEC6 charges by PACMAN v1.1 (https://github.com/mtap-research/PACMAN-charge/)
data_ZOQTIK_ASR_pacman
_symmetry_space_group_name_H-M   'P 1'
_cell_length_a   18.82790000
_cell_length_b   18.82790000
_cell_length_c   31.08100000
_cell_angle_alpha   79.85780000
_cell_angle_beta   100.14200000
_cell_angle_gamma   133.94300000
_symmetry_Int_Tables_number   1
_chemical_formula_structural   Zn6H25C37I12(N4Cl)3
_chemical_formula_sum   'Zn24 H100 C148 I48 N48 Cl12'
_cell_volume   7786.65070013
_cell_formula_units_Z   4
loop_
 _symmetry_equiv_pos_site_id
 _symmetry_equiv_pos_as_xyz
  1  'x, y, z'
loop_
 _atom_site_type_symbol
 _atom_site_label
 _atom_site_symmetry_multiplicity
 _atom_site_fract_x
 _atom_site_fract_y
 _atom_site_fract_z
 _atom_site_occupancy
 _atom_site_charge
Zn  Zn1  1  0.04592000  0.21008000  0.40263000  1.0 0.2540781587
Zn  Zn2  1  0.78992000  0.95408000  0.90263000  1.0 0.2540781587
Zn  Zn3  1  0.72808000  0.47748000  0.06223000  1.0 0.209277378
Zn  Zn4  1  0.52252000  0.27192000  0.56223000  1.0 0.209277378
Zn  Zn5  1  0.18224000  0.52550000  0.23023000  1.0 0.1792903234
Zn  Zn6  1  0.47450000  0.81776000  0.73023000  1.0 0.1792903234
Zn  Zn7  1  0.03230000  0.21370000  0.40970000  1.0 0.2974330425
Zn  Zn8  1  0.78630000  0.96770000  0.90970000  1.0 0.2974330425
Zn  Zn9  1  0.71590000  0.45450000  0.04980000  1.0 0.1932190374
Zn  Zn10  1  0.54550000  0.28410000  0.54980000  1.0 0.1996811718
Zn  Zn11  1  0.17280000  0.53740000  0.21810000  1.0 0.1996811718
Zn  Zn12  1  0.46260000  0.82720000  0.71810000  1.0 0.1996811718
Zn  Zn13  1  0.21008000  0.04592000  0.09737000  1.0 0.2540781587
Zn  Zn14  1  0.95408000  0.78992000  0.59737000  1.0 0.2540781587
Zn  Zn15  1  0.47748000  0.72808000  0.43777000  1.0 0.209277378
Zn  Zn16  1  0.27192000  0.52252000  0.93777000  1.0 0.209277378
Zn  Zn17  1  0.52550000  0.18224000  0.26977000  1.0 0.1737617939
Zn  Zn18  1  0.81776000  0.47450000  0.76977000  1.0 0.1792903234
Zn  Zn19  1  0.21370000  0.03230000  0.09030000  1.0 0.2974330425
Zn  Zn20  1  0.96770000  0.78630000  0.59030000  1.0 0.2974330425
Zn  Zn21  1  0.45450000  0.71590000  0.45020000  1.0 0.1932190374
Zn  Zn22  1  0.28410000  0.54550000  0.95020000  1.0 0.1996811718
Zn  Zn23  1  0.53740000  0.17280000  0.28190000  1.0 0.1996811718
Zn  Zn24  1  0.82720000  0.46260000  0.78190000  1.0 0.1996811718
H  H1  1  0.86270000  0.03730000  0.36170000  1.0 0.070410557
H  H2  1  0.96270000  0.13730000  0.86170000  1.0 0.070410557
H  H3  1  0.73160000  0.98900000  0.30960000  1.0 0.0996756101
H  H4  1  0.01100000  0.26840000  0.80960000  1.0 0.0996756101
H  H5  1  0.88420000  0.27960000  0.27770000  1.0 0.1121383271
H  H6  1  0.72040000  0.11580000  0.77770000  1.0 0.1121383271
H  H7  1  0.99510000  0.31550000  0.33720000  1.0 0.0588650834
H  H8  1  0.68450000  0.00490000  0.83720000  1.0 0.0588650834
H  H9  1  0.25060000  0.72000000  0.17840000  1.0 0.0588650834
H  H10  1  0.28000000  0.74940000  0.67840000  1.0 0.0588650834
H  H11  1  0.39640000  0.88600000  0.16980000  1.0 0.1203366115
H  H12  1  0.11400000  0.60360000  0.66980000  1.0 0.1203366115
H  H13  1  0.54160000  0.82580000  0.25530000  1.0 0.1203366115
H  H14  1  0.17420000  0.45840000  0.75530000  1.0 0.1203366115
H  H15  1  0.39190000  0.65990000  0.26080000  1.0 0.0588650834
H  H16  1  0.34010000  0.60810000  0.76080000  1.0 0.0588650834
H  H17  1  0.80880000  0.45440000  0.15150000  1.0 0.0588650834
H  H18  1  0.54560000  0.19120000  0.65150000  1.0 0.0588650834
H  H19  1  0.78660000  0.33300000  0.19770000  1.0 0.0996756101
H  H20  1  0.66700000  0.21340000  0.69770000  1.0 0.0996756101
H  H21  1  0.56250000  0.13030000  0.11640000  1.0 0.1121383271
H  H22  1  0.86970000  0.43750000  0.61640000  1.0 0.1121383271
H  H23  1  0.59000000  0.25400000  0.07000000  1.0 0.070410557
H  H24  1  0.74600000  0.41000000  0.57000000  1.0 0.070410557
H  H25  1  0.54930000  0.39950000  0.99430000  1.0 0.0588650834
H  H26  1  0.60050000  0.45070000  0.49430000  1.0 0.0588650834
H  H27  1  0.39590000  0.34910000  0.99250000  1.0 0.1203366115
H  H28  1  0.65090000  0.60410000  0.49250000  1.0 0.1203366115
H  H29  1  0.45950000  0.41350000  0.12040000  1.0 0.1121383271
H  H30  1  0.58650000  0.54050000  0.62040000  1.0 0.1121383271
H  H31  1  0.61140000  0.46520000  0.11710000  1.0 0.070410557
H  H32  1  0.53480000  0.38860000  0.61710000  1.0 0.070410557
H  H33  1  0.84560000  0.08440000  0.97100000  1.0 0.0588650834
H  H34  1  0.91560000  0.15440000  0.47100000  1.0 0.0588650834
H  H35  1  0.97860000  0.19560000  0.01950000  1.0 0.1203366115
H  H36  1  0.80440000  0.02140000  0.51950000  1.0 0.1203366115
H  H37  1  0.13140000  0.14780000  0.97830000  1.0 0.1203366115
H  H38  1  0.85220000  0.86860000  0.47830000  1.0 0.1203366115
H  H39  1  0.99690000  0.03230000  0.93410000  1.0 0.070410557
H  H40  1  0.96770000  0.00310000  0.43410000  1.0 0.070410557
H  H41  1  0.31540000  0.50540000  0.21130000  1.0 0.0752674803
H  H42  1  0.49460000  0.68460000  0.71130000  1.0 0.070410557
H  H43  1  0.33430000  0.44290000  0.16090000  1.0 0.1121383271
H  H44  1  0.55710000  0.66570000  0.66090000  1.0 0.1203366115
H  H45  1  0.08610000  0.36130000  0.09260000  1.0 0.1203366115
H  H46  1  0.63870000  0.91390000  0.59260000  1.0 0.1203366115
H  H47  1  0.07260000  0.42220000  0.14530000  1.0 0.0588650834
H  H48  1  0.57780000  0.92740000  0.64530000  1.0 0.0588650834
H  H49  1  0.61830000  0.36250000  0.94000000  1.0 0.0996756101
H  H50  1  0.63750000  0.38170000  0.44000000  1.0 0.0945999563
H  H51  1  0.03730000  0.86270000  0.13830000  1.0 0.070410557
H  H52  1  0.13730000  0.96270000  0.63830000  1.0 0.070410557
H  H53  1  0.98900000  0.73160000  0.19040000  1.0 0.0996756101
H  H54  1  0.26840000  0.01100000  0.69040000  1.0 0.0996756101
H  H55  1  0.27960000  0.88420000  0.22230000  1.0 0.1121383271
H  H56  1  0.11580000  0.72040000  0.72230000  1.0 0.1121383271
H  H57  1  0.31550000  0.99510000  0.16280000  1.0 0.0588650834
H  H58  1  0.00490000  0.68450000  0.66280000  1.0 0.0588650834
H  H59  1  0.72000000  0.25060000  0.32160000  1.0 0.0588650834
H  H60  1  0.74940000  0.28000000  0.82160000  1.0 0.0588650834
H  H61  1  0.88600000  0.39640000  0.33020000  1.0 0.1203366115
H  H62  1  0.60360000  0.11400000  0.83020000  1.0 0.1203366115
H  H63  1  0.82580000  0.54160000  0.24470000  1.0 0.1203366115
H  H64  1  0.45840000  0.17420000  0.74470000  1.0 0.1203366115
H  H65  1  0.65990000  0.39190000  0.23920000  1.0 0.0588650834
H  H66  1  0.60810000  0.34010000  0.73920000  1.0 0.0588650834
H  H67  1  0.45440000  0.80880000  0.34850000  1.0 0.0588650834
H  H68  1  0.19120000  0.54560000  0.84850000  1.0 0.0588650834
H  H69  1  0.33300000  0.78660000  0.30230000  1.0 0.0996756101
H  H70  1  0.21340000  0.66700000  0.80230000  1.0 0.0996756101
H  H71  1  0.13030000  0.56250000  0.38360000  1.0 0.1121383271
H  H72  1  0.43750000  0.86970000  0.88360000  1.0 0.1121383271
H  H73  1  0.25400000  0.59000000  0.43000000  1.0 0.070410557
H  H74  1  0.41000000  0.74600000  0.93000000  1.0 0.070410557
H  H75  1  0.39950000  0.54930000  0.50570000  1.0 0.0588650834
H  H76  1  0.45070000  0.60050000  0.00570000  1.0 0.0588650834
H  H77  1  0.34910000  0.39590000  0.50750000  1.0 0.1203366115
H  H78  1  0.60410000  0.65090000  0.00750000  1.0 0.1203366115
H  H79  1  0.41350000  0.45950000  0.37960000  1.0 0.1121383271
H  H80  1  0.54050000  0.58650000  0.87960000  1.0 0.1121383271
H  H81  1  0.46520000  0.61140000  0.38290000  1.0 0.070410557
H  H82  1  0.38860000  0.53480000  0.88290000  1.0 0.070410557
H  H83  1  0.08440000  0.84560000  0.52900000  1.0 0.0588650834
H  H84  1  0.15440000  0.91560000  0.02900000  1.0 0.0588650834
H  H85  1  0.19560000  0.97860000  0.48050000  1.0 0.1203366115
H  H86  1  0.02140000  0.80440000  0.98050000  1.0 0.1203366115
H  H87  1  0.14780000  0.13140000  0.52170000  1.0 0.1203366115
H  H88  1  0.86860000  0.85220000  0.02170000  1.0 0.1203366115
H  H89  1  0.03230000  0.99690000  0.56590000  1.0 0.070410557
H  H90  1  0.00310000  0.96770000  0.06590000  1.0 0.070410557
H  H91  1  0.50540000  0.31540000  0.28870000  1.0 0.070410557
H  H92  1  0.68460000  0.49460000  0.78870000  1.0 0.070410557
H  H93  1  0.44290000  0.33430000  0.33910000  1.0 0.1203366115
H  H94  1  0.66570000  0.55710000  0.83910000  1.0 0.1121383271
H  H95  1  0.36130000  0.08610000  0.40740000  1.0 0.1203366115
H  H96  1  0.91390000  0.63870000  0.90740000  1.0 0.1203366115
H  H97  1  0.42220000  0.07260000  0.35470000  1.0 0.0588650834
H  H98  1  0.92740000  0.57780000  0.85470000  1.0 0.0588650834
H  H99  1  0.36250000  0.61830000  0.56000000  1.0 0.0996756101
H  H100  1  0.38170000  0.63750000  0.06000000  1.0 0.0996756101
C  C1  1  0.86360000  0.08600000  0.34600000  1.0 0.0588650834
C  C2  1  0.91400000  0.13640000  0.84600000  1.0 0.0588650834
C  C3  1  0.78780000  0.05700000  0.31330000  1.0 -0.1629504351
C  C4  1  0.94300000  0.21220000  0.81330000  1.0 -0.1629504351
C  C5  1  0.79640000  0.12940000  0.28650000  1.0 0.0588650834
C  C6  1  0.87060000  0.20360000  0.78650000  1.0 0.0588650834
C  C7  1  0.87590000  0.22790000  0.29540000  1.0 -0.1768833906
C  C8  1  0.77210000  0.12410000  0.79540000  1.0 -0.1768833906
C  C9  1  0.94220000  0.24860000  0.33050000  1.0 0.0123072683
C  C10  1  0.75140000  0.05780000  0.83050000  1.0 0.0123072683
C  C11  1  0.72060000  0.10000000  0.25030000  1.0 0.3419917874
C  C12  1  0.90000000  0.27940000  0.75030000  1.0 0.3419917874
C  C13  1  0.66030000  0.13950000  0.19250000  1.0 0.3500478804
C  C14  1  0.86050000  0.33970000  0.69250000  1.0 0.3500478804
C  C15  1  0.57520000  0.98160000  0.21430000  1.0 0.3280312483
C  C16  1  0.01840000  0.42480000  0.71430000  1.0 0.3280312483
C  C17  1  0.31010000  0.74170000  0.19410000  1.0 0.0401401566
C  C18  1  0.25830000  0.68990000  0.69410000  1.0 0.0401401566
C  C19  1  0.39660000  0.84120000  0.18930000  1.0 -0.1768833906
C  C20  1  0.15880000  0.60340000  0.68930000  1.0 -0.1768833906
C  C21  1  0.48270000  0.87390000  0.21320000  1.0 0.0497862465
C  C22  1  0.12610000  0.51730000  0.71320000  1.0 0.0497862465
C  C23  1  0.48260000  0.80560000  0.23970000  1.0 -0.1629504351
C  C24  1  0.19440000  0.51740000  0.73970000  1.0 -0.1629504351
C  C25  1  0.39310000  0.70690000  0.24250000  1.0 0.019144171
C  C26  1  0.29310000  0.60690000  0.74250000  1.0 0.019144171
C  C27  1  0.75900000  0.38780000  0.14380000  1.0 0.019144171
C  C28  1  0.61220000  0.24100000  0.64380000  1.0 0.019144171
C  C29  1  0.74550000  0.31590000  0.17120000  1.0 -0.1691729412
C  C30  1  0.68410000  0.25450000  0.67120000  1.0 -0.1691729412
C  C31  1  0.67340000  0.21820000  0.16170000  1.0 0.0497862465
C  C32  1  0.78180000  0.32660000  0.66170000  1.0 0.0497862465
C  C33  1  0.61470000  0.19690000  0.12370000  1.0 -0.1691729412
C  C34  1  0.80310000  0.38530000  0.62370000  1.0 -0.1691729412
C  C35  1  0.63080000  0.27040000  0.09660000  1.0 0.0011846986
C  C36  1  0.72960000  0.36920000  0.59660000  1.0 0.0011846986
C  C37  1  0.53000000  0.40240000  0.01970000  1.0 -0.0113768907
C  C38  1  0.59760000  0.47000000  0.51970000  1.0 -0.0113768907
C  C39  1  0.43950000  0.37390000  0.01830000  1.0 -0.1691729412
C  C40  1  0.62610000  0.56050000  0.51830000  1.0 -0.1768833906
C  C41  1  0.41290000  0.38170000  0.05510000  1.0 0.0497862465
C  C42  1  0.61830000  0.58710000  0.55510000  1.0 0.0497862465
C  C43  1  0.47730000  0.41230000  0.09390000  1.0 -0.1880853221
C  C44  1  0.58770000  0.52270000  0.59390000  1.0 -0.1880853221
C  C45  1  0.56600000  0.44020000  0.09190000  1.0 0.0401401566
C  C46  1  0.55980000  0.43400000  0.59190000  1.0 0.0401401566
C  C47  1  0.31710000  0.35210000  0.05590000  1.0 0.3280312483
C  C48  1  0.64790000  0.68290000  0.55590000  1.0 0.3280312483
C  C49  1  0.15760000  0.26160000  0.03170000  1.0 0.3419917874
C  C50  1  0.73840000  0.84240000  0.53170000  1.0 0.3419917874
C  C51  1  0.22390000  0.35850000  0.08760000  1.0 0.3280312483
C  C52  1  0.64150000  0.77610000  0.58760000  1.0 0.3280312483
C  C53  1  0.90410000  0.09650000  0.97280000  1.0 0.0401401566
C  C54  1  0.90350000  0.09590000  0.47280000  1.0 0.0401401566
C  C55  1  0.98410000  0.16450000  0.00110000  1.0 -0.1629504351
C  C56  1  0.83550000  0.01590000  0.50110000  1.0 -0.1629504351
C  C57  1  0.07130000  0.18670000  0.00260000  1.0 0.0401401566
C  C58  1  0.81330000  0.92870000  0.50260000  1.0 0.0401401566
C  C59  1  0.07290000  0.13530000  0.97730000  1.0 -0.1691729412
C  C60  1  0.86470000  0.92710000  0.47730000  1.0 -0.1691729412
C  C61  1  0.99330000  0.06710000  0.95090000  1.0 0.0123072683
C  C62  1  0.93290000  0.00670000  0.45090000  1.0 0.019144171
C  C63  1  0.26890000  0.47590000  0.18660000  1.0 0.0290243864
C  C64  1  0.52410000  0.73110000  0.68660000  1.0 0.0290243864
C  C65  1  0.28060000  0.43920000  0.15690000  1.0 -0.1629504351
C  C66  1  0.56080000  0.71940000  0.65690000  1.0 -0.1629504351
C  C67  1  0.21130000  0.39610000  0.12040000  1.0 0.0497862465
C  C68  1  0.60390000  0.78870000  0.62040000  1.0 0.0497862465
C  C69  1  0.13440000  0.39080000  0.11670000  1.0 -0.1768833906
C  C70  1  0.60920000  0.86560000  0.61670000  1.0 -0.1768833906
C  C71  1  0.12740000  0.42800000  0.14810000  1.0 0.0497862465
C  C72  1  0.57200000  0.87260000  0.64810000  1.0 0.0497862465
C  C73  1  0.55360000  0.31040000  0.92360000  1.0 0.0011846986
C  C74  1  0.68960000  0.44640000  0.42360000  1.0 0.0011846986
C  C75  1  0.08600000  0.86360000  0.15400000  1.0 0.0588650834
C  C76  1  0.13640000  0.91400000  0.65400000  1.0 0.0588650834
C  C77  1  0.05700000  0.78780000  0.18670000  1.0 -0.1629504351
C  C78  1  0.21220000  0.94300000  0.68670000  1.0 -0.1629504351
C  C79  1  0.12940000  0.79640000  0.21350000  1.0 0.0588650834
C  C80  1  0.20360000  0.87060000  0.71350000  1.0 0.0588650834
C  C81  1  0.22790000  0.87590000  0.20460000  1.0 -0.1768833906
C  C82  1  0.12410000  0.77210000  0.70460000  1.0 -0.1768833906
C  C83  1  0.24860000  0.94220000  0.16950000  1.0 0.0123072683
C  C84  1  0.05780000  0.75140000  0.66950000  1.0 0.0123072683
C  C85  1  0.10000000  0.72060000  0.24970000  1.0 0.3419917874
C  C86  1  0.27940000  0.90000000  0.74970000  1.0 0.3419917874
C  C87  1  0.13950000  0.66030000  0.30750000  1.0 0.3500478804
C  C88  1  0.33970000  0.86050000  0.80750000  1.0 0.3500478804
C  C89  1  0.98160000  0.57520000  0.28570000  1.0 0.3280312483
C  C90  1  0.42480000  0.01840000  0.78570000  1.0 0.3280312483
C  C91  1  0.74170000  0.31010000  0.30590000  1.0 0.0401401566
C  C92  1  0.68990000  0.25830000  0.80590000  1.0 0.0401401566
C  C93  1  0.84120000  0.39660000  0.31070000  1.0 -0.1768833906
C  C94  1  0.60340000  0.15880000  0.81070000  1.0 -0.1768833906
C  C95  1  0.87390000  0.48270000  0.28680000  1.0 0.0497862465
C  C96  1  0.51730000  0.12610000  0.78680000  1.0 0.0497862465
C  C97  1  0.80560000  0.48260000  0.26030000  1.0 -0.1629504351
C  C98  1  0.51740000  0.19440000  0.76030000  1.0 -0.1629504351
C  C99  1  0.70690000  0.39310000  0.25750000  1.0 0.019144171
C  C100  1  0.60690000  0.29310000  0.75750000  1.0 0.0290243864
C  C101  1  0.38780000  0.75900000  0.35620000  1.0 0.019144171
C  C102  1  0.24100000  0.61220000  0.85620000  1.0 0.019144171
C  C103  1  0.31590000  0.74550000  0.32880000  1.0 -0.1691729412
C  C104  1  0.25450000  0.68410000  0.82880000  1.0 -0.1691729412
C  C105  1  0.21820000  0.67340000  0.33830000  1.0 0.0497862465
C  C106  1  0.32660000  0.78180000  0.83830000  1.0 0.0497862465
C  C107  1  0.19690000  0.61470000  0.37630000  1.0 -0.1691729412
C  C108  1  0.38530000  0.80310000  0.87630000  1.0 -0.1691729412
C  C109  1  0.27040000  0.63080000  0.40340000  1.0 0.0011846986
C  C110  1  0.36920000  0.72960000  0.90340000  1.0 0.0011846986
C  C111  1  0.40240000  0.53000000  0.48030000  1.0 -0.0113768907
C  C112  1  0.47000000  0.59760000  0.98030000  1.0 -0.0113768907
C  C113  1  0.37390000  0.43950000  0.48170000  1.0 -0.1768833906
C  C114  1  0.56050000  0.62610000  0.98170000  1.0 -0.1768833906
C  C115  1  0.38170000  0.41290000  0.44490000  1.0 0.0497862465
C  C116  1  0.58710000  0.61830000  0.94490000  1.0 0.0497862465
C  C117  1  0.41230000  0.47730000  0.40610000  1.0 -0.1880853221
C  C118  1  0.52270000  0.58770000  0.90610000  1.0 -0.1880853221
C  C119  1  0.44020000  0.56600000  0.40810000  1.0 0.0401401566
C  C120  1  0.43400000  0.55980000  0.90810000  1.0 0.0401401566
C  C121  1  0.35210000  0.31710000  0.44410000  1.0 0.3280312483
C  C122  1  0.68290000  0.64790000  0.94410000  1.0 0.3280312483
C  C123  1  0.26160000  0.15760000  0.46830000  1.0 0.3419917874
C  C124  1  0.84240000  0.73840000  0.96830000  1.0 0.3419917874
C  C125  1  0.35850000  0.22390000  0.41240000  1.0 0.3280312483
C  C126  1  0.77610000  0.64150000  0.91240000  1.0 0.3280312483
C  C127  1  0.09650000  0.90410000  0.52720000  1.0 0.0401401566
C  C128  1  0.09590000  0.90350000  0.02720000  1.0 0.0401401566
C  C129  1  0.16450000  0.98410000  0.49890000  1.0 -0.1629504351
C  C130  1  0.01590000  0.83550000  0.99890000  1.0 -0.1629504351
C  C131  1  0.18670000  0.07130000  0.49740000  1.0 0.0401401566
C  C132  1  0.92870000  0.81330000  0.99740000  1.0 0.0401401566
C  C133  1  0.13530000  0.07290000  0.52270000  1.0 -0.1691729412
C  C134  1  0.92710000  0.86470000  0.02270000  1.0 -0.1691729412
C  C135  1  0.06710000  0.99330000  0.54910000  1.0 0.019144171
C  C136  1  0.00670000  0.93290000  0.04910000  1.0 0.0123072683
C  C137  1  0.47590000  0.26890000  0.31340000  1.0 0.0290243864
C  C138  1  0.73110000  0.52410000  0.81340000  1.0 0.0290243864
C  C139  1  0.43920000  0.28060000  0.34310000  1.0 -0.1629504351
C  C140  1  0.71940000  0.56080000  0.84310000  1.0 -0.1629504351
C  C141  1  0.39610000  0.21130000  0.37960000  1.0 0.0497862465
C  C142  1  0.78870000  0.60390000  0.87960000  1.0 0.0497862465
C  C143  1  0.39080000  0.13440000  0.38330000  1.0 -0.1768833906
C  C144  1  0.86560000  0.60920000  0.88330000  1.0 -0.1768833906
C  C145  1  0.42800000  0.12740000  0.35190000  1.0 0.0497862465
C  C146  1  0.87260000  0.57200000  0.85190000  1.0 0.0497862465
C  C147  1  0.31040000  0.55360000  0.57640000  1.0 -0.0003903233
C  C148  1  0.44640000  0.68960000  0.07640000  1.0 -0.0003903233
I  I1  1  0.12448000  0.36324000  0.43859000  1.0 -0.0393615911
I  I2  1  0.63676000  0.87552000  0.93859000  1.0 -0.046218169
I  I3  1  0.13094000  0.17736000  0.36676000  1.0 0.0290243864
I  I4  1  0.82264000  0.86906000  0.86676000  1.0 0.0290243864
I  I5  1  0.84972000  0.63640000  0.10005000  1.0 0.0290243864
I  I6  1  0.36360000  0.15028000  0.60005000  1.0 0.0290243864
I  I7  1  0.75079000  0.45505000  0.98967000  1.0 -0.0766803496
I  I8  1  0.54495000  0.24921000  0.48967000  1.0 -0.0766803496
I  I9  1  0.21283000  0.46801000  0.30549000  1.0 0.0497862465
I  I10  1  0.53199000  0.78717000  0.80549000  1.0 0.0588650834
I  I11  1  0.02875000  0.49851000  0.20730000  1.0 -0.0322993
I  I12  1  0.50149000  0.97125000  0.70730000  1.0 -0.0322993
I  I13  1  0.09150000  0.36290000  0.44200000  1.0 0.0123072683
I  I14  1  0.63710000  0.90850000  0.94200000  1.0 0.0123072683
I  I15  1  0.13800000  0.19940000  0.37700000  1.0 -0.0393615911
I  I16  1  0.80060000  0.86200000  0.87700000  1.0 -0.0393615911
I  I17  1  0.86250000  0.62170000  0.07680000  1.0 -0.0322993
I  I18  1  0.37830000  0.13750000  0.57680000  1.0 -0.0322993
I  I19  1  0.72530000  0.41630000  0.97770000  1.0 -0.0186083428
I  I20  1  0.58370000  0.27470000  0.47770000  1.0 -0.0113768907
I  I21  1  0.18940000  0.47040000  0.29440000  1.0 -0.0186083428
I  I22  1  0.52960000  0.81060000  0.79440000  1.0 -0.0113768907
I  I23  1  0.02980000  0.52300000  0.18930000  1.0 0.0401401566
I  I24  1  0.47700000  0.97020000  0.68930000  1.0 0.0497862465
I  I25  1  0.36324000  0.12448000  0.06141000  1.0 -0.046218169
I  I26  1  0.87552000  0.63676000  0.56141000  1.0 -0.0393615911
I  I27  1  0.17736000  0.13094000  0.13324000  1.0 0.0290243864
I  I28  1  0.86906000  0.82264000  0.63324000  1.0 0.0290243864
I  I29  1  0.63640000  0.84972000  0.39995000  1.0 0.0290243864
I  I30  1  0.15028000  0.36360000  0.89995000  1.0 0.0290243864
I  I31  1  0.45505000  0.75079000  0.51033000  1.0 -0.0766803496
I  I32  1  0.24921000  0.54495000  0.01033000  1.0 -0.0766803496
I  I33  1  0.46801000  0.21283000  0.19451000  1.0 0.0588650834
I  I34  1  0.78717000  0.53199000  0.69451000  1.0 0.0497862465
I  I35  1  0.49851000  0.02875000  0.29270000  1.0 -0.0393615911
I  I36  1  0.97125000  0.50149000  0.79270000  1.0 -0.0322993
I  I37  1  0.36290000  0.09150000  0.05800000  1.0 0.0011846986
I  I38  1  0.90850000  0.63710000  0.55800000  1.0 0.0123072683
I  I39  1  0.19940000  0.13800000  0.12300000  1.0 -0.046218169
I  I40  1  0.86200000  0.80060000  0.62300000  1.0 -0.0393615911
I  I41  1  0.62170000  0.86250000  0.42320000  1.0 -0.0322993
I  I42  1  0.13750000  0.37830000  0.92320000  1.0 -0.0322993
I  I43  1  0.41630000  0.72530000  0.52230000  1.0 -0.0186083428
I  I44  1  0.27470000  0.58370000  0.02230000  1.0 -0.0186083428
I  I45  1  0.47040000  0.18940000  0.20560000  1.0 -0.0113768907
I  I46  1  0.81060000  0.52960000  0.70560000  1.0 -0.0113768907
I  I47  1  0.52300000  0.02980000  0.31070000  1.0 0.0401401566
I  I48  1  0.97020000  0.47700000  0.81070000  1.0 0.0401401566
N  N1  1  0.93610000  0.17890000  0.35580000  1.0 -0.2001303469
N  N2  1  0.82110000  0.06390000  0.85580000  1.0 -0.2001303469
N  N3  1  0.64480000  0.00340000  0.24610000  1.0 -0.4294617865
N  N4  1  0.99660000  0.35520000  0.74610000  1.0 -0.4294617865
N  N5  1  0.57990000  0.04630000  0.18570000  1.0 -0.4244864047
N  N6  1  0.95370000  0.42010000  0.68570000  1.0 -0.4294617865
N  N7  1  0.73070000  0.17190000  0.22480000  1.0 -0.4294617865
N  N8  1  0.82810000  0.26930000  0.72480000  1.0 -0.4294617865
N  N9  1  0.30810000  0.67550000  0.22010000  1.0 -0.2097876579
N  N10  1  0.32450000  0.69190000  0.72010000  1.0 -0.2097876579
N  N11  1  0.70290000  0.36710000  0.10560000  1.0 -0.1691729412
N  N12  1  0.63290000  0.29710000  0.60560000  1.0 -0.1768833906
N  N13  1  0.59200000  0.43440000  0.05690000  1.0 -0.2001303469
N  N14  1  0.56560000  0.40800000  0.55690000  1.0 -0.2001303469
N  N15  1  0.24450000  0.29030000  0.02620000  1.0 -0.4539915755
N  N16  1  0.70970000  0.75550000  0.52620000  1.0 -0.4539915755
N  N17  1  0.14260000  0.29180000  0.06060000  1.0 -0.4402535133
N  N18  1  0.70820000  0.85740000  0.56060000  1.0 -0.4402535133
N  N19  1  0.31260000  0.39020000  0.08670000  1.0 -0.4402535133
N  N20  1  0.60980000  0.68740000  0.58670000  1.0 -0.4402535133
N  N21  1  0.90760000  0.04740000  0.94780000  1.0 -0.2226752289
N  N22  1  0.95260000  0.09240000  0.44780000  1.0 -0.2226752289
N  N23  1  0.19240000  0.47120000  0.18170000  1.0 -0.1880853221
N  N24  1  0.52880000  0.80760000  0.68170000  1.0 -0.1880853221
N  N25  1  0.17890000  0.93610000  0.14420000  1.0 -0.1880853221
N  N26  1  0.06390000  0.82110000  0.64420000  1.0 -0.1880853221
N  N27  1  0.00340000  0.64480000  0.25390000  1.0 -0.4294617865
N  N28  1  0.35520000  0.99660000  0.75390000  1.0 -0.4294617865
N  N29  1  0.04630000  0.57990000  0.31430000  1.0 -0.4244864047
N  N30  1  0.42010000  0.95370000  0.81430000  1.0 -0.4244864047
N  N31  1  0.17190000  0.73070000  0.27520000  1.0 -0.4294617865
N  N32  1  0.26930000  0.82810000  0.77520000  1.0 -0.4294617865
N  N33  1  0.67550000  0.30810000  0.27990000  1.0 -0.2097876579
N  N34  1  0.69190000  0.32450000  0.77990000  1.0 -0.2097876579
N  N35  1  0.36710000  0.70290000  0.39440000  1.0 -0.1768833906
N  N36  1  0.29710000  0.63290000  0.89440000  1.0 -0.1768833906
N  N37  1  0.43440000  0.59200000  0.44310000  1.0 -0.2001303469
N  N38  1  0.40800000  0.56560000  0.94310000  1.0 -0.2001303469
N  N39  1  0.29030000  0.24450000  0.47380000  1.0 -0.4539915755
N  N40  1  0.75550000  0.70970000  0.97380000  1.0 -0.4539915755
N  N41  1  0.29180000  0.14260000  0.43940000  1.0 -0.4402535133
N  N42  1  0.85740000  0.70820000  0.93940000  1.0 -0.4402535133
N  N43  1  0.39020000  0.31260000  0.41330000  1.0 -0.4402535133
N  N44  1  0.68740000  0.60980000  0.91330000  1.0 -0.4402535133
N  N45  1  0.04740000  0.90760000  0.55220000  1.0 -0.2226752289
N  N46  1  0.09240000  0.95260000  0.05220000  1.0 -0.2226752289
N  N47  1  0.47120000  0.19240000  0.31830000  1.0 -0.1880853221
N  N48  1  0.80760000  0.52880000  0.81830000  1.0 -0.1880853221
Cl  Cl1  1  0.47700000  0.20300000  0.95870000  1.0 -0.1100171442
Cl  Cl2  1  0.79700000  0.52300000  0.45870000  1.0 -0.1100171442
Cl  Cl3  1  0.57510000  0.28630000  0.87820000  1.0 -0.0637346007
Cl  Cl4  1  0.71370000  0.42490000  0.37820000  1.0 -0.0674073247
Cl  Cl5  1  0.49370000  0.35230000  0.90560000  1.0 -0.0766803496
Cl  Cl6  1  0.64770000  0.50630000  0.40560000  1.0 -0.0766803496
Cl  Cl7  1  0.20300000  0.47700000  0.54130000  1.0 -0.1036690533
Cl  Cl8  1  0.52300000  0.79700000  0.04130000  1.0 -0.1100171442
Cl  Cl9  1  0.28630000  0.57510000  0.62180000  1.0 -0.0674073247
Cl  Cl10  1  0.42490000  0.71370000  0.12180000  1.0 -0.0674073247
Cl  Cl11  1  0.35230000  0.49370000  0.59440000  1.0 -0.0766803496
Cl  Cl12  1  0.50630000  0.64770000  0.09440000  1.0 -0.0766803496
