# DDEC6 charges by PACMAN v1.1 (https://github.com/mtap-research/PACMAN-charge/)
data_ZOQZAI_ASR_pacman
_symmetry_space_group_name_H-M   'P 1'
_cell_length_a   24.41500000
_cell_length_b   24.41500000
_cell_length_c   15.33700000
_cell_angle_alpha   90.00000000
_cell_angle_beta   90.00000000
_cell_angle_gamma   90.00000000
_symmetry_Int_Tables_number   1
_chemical_formula_structural   K2Cu3SiH32RuW11C40(N4O17)2
_chemical_formula_sum   'K8 Cu12 Si4 H128 Ru4 W44 C160 N32 O136'
_cell_volume   9142.26645482
_cell_formula_units_Z   4
loop_
 _symmetry_equiv_pos_site_id
 _symmetry_equiv_pos_as_xyz
  1  'x, y, z'
loop_
 _atom_site_type_symbol
 _atom_site_label
 _atom_site_symmetry_multiplicity
 _atom_site_fract_x
 _atom_site_fract_y
 _atom_site_fract_z
 _atom_site_occupancy
 _atom_site_charge
K  K1  1  0.76400000  0.94660000  0.88510000  1.0 0.9068522965
K  K2  1  0.23600000  0.05340000  0.88510000  1.0 0.9068522965
K  K3  1  0.44660000  0.26400000  0.88510000  1.0 0.9068522965
K  K4  1  0.55340000  0.73600000  0.88510000  1.0 0.9068522965
K  K5  1  0.94660000  0.23600000  0.11490000  1.0 0.9068522965
K  K6  1  0.05340000  0.76400000  0.11490000  1.0 0.9068522965
K  K7  1  0.26400000  0.55340000  0.11490000  1.0 0.9068522965
K  K8  1  0.73600000  0.44660000  0.11490000  1.0 0.9068522965
Cu  Cu1  1  0.68600000  0.10371000  0.24421000  1.0 0.8622355675
Cu  Cu2  1  0.31400000  0.89629000  0.24421000  1.0 0.8622355675
Cu  Cu3  1  0.60371000  0.18600000  0.24421000  1.0 0.8622355675
Cu  Cu4  1  0.39629000  0.81400000  0.24421000  1.0 0.8622355675
Cu  Cu5  1  0.00000000  0.00000000  0.74590000  1.0 0.1730259535
Cu  Cu6  1  0.50000000  0.50000000  0.74590000  1.0 0.1730259535
Cu  Cu7  1  0.10371000  0.31400000  0.75579000  1.0 0.8622355675
Cu  Cu8  1  0.89629000  0.68600000  0.75579000  1.0 0.8622355675
Cu  Cu9  1  0.18600000  0.39629000  0.75579000  1.0 0.8622355675
Cu  Cu10  1  0.81400000  0.60371000  0.75579000  1.0 0.8622355675
Cu  Cu11  1  0.00000000  0.00000000  0.25410000  1.0 0.1730259535
Cu  Cu12  1  0.50000000  0.50000000  0.25410000  1.0 0.1730259535
Si  Si1  1  0.68961000  0.81039000  0.30090000  1.0 1.6221852516
Si  Si2  1  0.31039000  0.18961000  0.30090000  1.0 1.6221852516
Si  Si3  1  0.81039000  0.31039000  0.69910000  1.0 1.6221852516
Si  Si4  1  0.18961000  0.68961000  0.69910000  1.0 1.6221852516
H  H1  1  0.88760000  0.96430000  0.69390000  1.0 0.0811121243
H  H2  1  0.11240000  0.03570000  0.69390000  1.0 0.0811121243
H  H3  1  0.46430000  0.38760000  0.69390000  1.0 0.0811121243
H  H4  1  0.53570000  0.61240000  0.69390000  1.0 0.0811121243
H  H5  1  0.81920000  0.98650000  0.59920000  1.0 0.1177682145
H  H6  1  0.18080000  0.01350000  0.59920000  1.0 0.1177682145
H  H7  1  0.48650000  0.31920000  0.59920000  1.0 0.1177682145
H  H8  1  0.51350000  0.68080000  0.59920000  1.0 0.1177682145
H  H9  1  0.91710000  0.10220000  0.49880000  1.0 0.1099136564
H  H10  1  0.08290000  0.89780000  0.49880000  1.0 0.1099136564
H  H11  1  0.60220000  0.41710000  0.49880000  1.0 0.1099136564
H  H12  1  0.39780000  0.58290000  0.49880000  1.0 0.1099136564
H  H13  1  0.98150000  0.07840000  0.59990000  1.0 0.0811121243
H  H14  1  0.01850000  0.92160000  0.59990000  1.0 0.0811121243
H  H15  1  0.57840000  0.48150000  0.59990000  1.0 0.0811121243
H  H16  1  0.42160000  0.51850000  0.59990000  1.0 0.0811121243
H  H17  1  0.69320000  0.03720000  0.41370000  1.0 0.1177682145
H  H18  1  0.30680000  0.96280000  0.41370000  1.0 0.1177682145
H  H19  1  0.53720000  0.19320000  0.41370000  1.0 0.1177682145
H  H20  1  0.46280000  0.80680000  0.41370000  1.0 0.1177682145
H  H21  1  0.75460000  0.02020000  0.51920000  1.0 0.1177682145
H  H22  1  0.24540000  0.97980000  0.51920000  1.0 0.1177682145
H  H23  1  0.52020000  0.25460000  0.51920000  1.0 0.1177682145
H  H24  1  0.47980000  0.74540000  0.51920000  1.0 0.1177682145
H  H25  1  0.86480000  0.10780000  0.39270000  1.0 0.1026076553
H  H26  1  0.13520000  0.89220000  0.39270000  1.0 0.1026076553
H  H27  1  0.60780000  0.36480000  0.39270000  1.0 0.1026076553
H  H28  1  0.39220000  0.63520000  0.39270000  1.0 0.1026076553
H  H29  1  0.80010000  0.13030000  0.29030000  1.0 0.0811121243
H  H30  1  0.19990000  0.86970000  0.29030000  1.0 0.0811121243
H  H31  1  0.63030000  0.30010000  0.29030000  1.0 0.0811121243
H  H32  1  0.36970000  0.69990000  0.29030000  1.0 0.0811121243
H  H33  1  0.73420000  0.15320000  0.08560000  1.0 0.0935937252
H  H34  1  0.26580000  0.84680000  0.08560000  1.0 0.0935937252
H  H35  1  0.65320000  0.23420000  0.08560000  1.0 0.0935937252
H  H36  1  0.34680000  0.76580000  0.08560000  1.0 0.0935937252
H  H37  1  0.79690000  0.13240000  0.97950000  1.0 0.1177682145
H  H38  1  0.20310000  0.86760000  0.97950000  1.0 0.1177682145
H  H39  1  0.63240000  0.29690000  0.97950000  1.0 0.1177682145
H  H40  1  0.36760000  0.70310000  0.97950000  1.0 0.1177682145
H  H41  1  0.82050000  0.98910000  0.09120000  1.0 0.1099136564
H  H42  1  0.17950000  0.01090000  0.09120000  1.0 0.1099136564
H  H43  1  0.48910000  0.32050000  0.09120000  1.0 0.1099136564
H  H44  1  0.51090000  0.67950000  0.09120000  1.0 0.1099136564
H  H45  1  0.75820000  0.01030000  0.19170000  1.0 0.0811121243
H  H46  1  0.24180000  0.98970000  0.19170000  1.0 0.0811121243
H  H47  1  0.51030000  0.25820000  0.19170000  1.0 0.0811121243
H  H48  1  0.48970000  0.74180000  0.19170000  1.0 0.0811121243
H  H49  1  0.92310000  0.09360000  0.78730000  1.0 0.0811121243
H  H50  1  0.07690000  0.90640000  0.78730000  1.0 0.0811121243
H  H51  1  0.59360000  0.42310000  0.78730000  1.0 0.0811121243
H  H52  1  0.40640000  0.57690000  0.78730000  1.0 0.0811121243
H  H53  1  0.85510000  0.11330000  0.88780000  1.0 0.1409817998
H  H54  1  0.14490000  0.88670000  0.88780000  1.0 0.1409817998
H  H55  1  0.61330000  0.35510000  0.88780000  1.0 0.1409817998
H  H56  1  0.38670000  0.64490000  0.88780000  1.0 0.1409817998
H  H57  1  0.88310000  0.97360000  0.00820000  1.0 0.1026076553
H  H58  1  0.11690000  0.02640000  0.00820000  1.0 0.1026076553
H  H59  1  0.47360000  0.38310000  0.00820000  1.0 0.1026076553
H  H60  1  0.52640000  0.61690000  0.00820000  1.0 0.1026076553
H  H61  1  0.95010000  0.95440000  0.91090000  1.0 0.0811121243
H  H62  1  0.04990000  0.04560000  0.91090000  1.0 0.0811121243
H  H63  1  0.45440000  0.45010000  0.91090000  1.0 0.0811121243
H  H64  1  0.54560000  0.54990000  0.91090000  1.0 0.0811121243
H  H65  1  0.96430000  0.11240000  0.30610000  1.0 0.0811121243
H  H66  1  0.03570000  0.88760000  0.30610000  1.0 0.0811121243
H  H67  1  0.38760000  0.53570000  0.30610000  1.0 0.0811121243
H  H68  1  0.61240000  0.46430000  0.30610000  1.0 0.0811121243
H  H69  1  0.98650000  0.18080000  0.40080000  1.0 0.1177682145
H  H70  1  0.01350000  0.81920000  0.40080000  1.0 0.1177682145
H  H71  1  0.31920000  0.51350000  0.40080000  1.0 0.1177682145
H  H72  1  0.68080000  0.48650000  0.40080000  1.0 0.1177682145
H  H73  1  0.10220000  0.08290000  0.50120000  1.0 0.1099136564
H  H74  1  0.89780000  0.91710000  0.50120000  1.0 0.1099136564
H  H75  1  0.41710000  0.39780000  0.50120000  1.0 0.1099136564
H  H76  1  0.58290000  0.60220000  0.50120000  1.0 0.1099136564
H  H77  1  0.07840000  0.01850000  0.40010000  1.0 0.0811121243
H  H78  1  0.92160000  0.98150000  0.40010000  1.0 0.0811121243
H  H79  1  0.48150000  0.42160000  0.40010000  1.0 0.0811121243
H  H80  1  0.51850000  0.57840000  0.40010000  1.0 0.0811121243
H  H81  1  0.03720000  0.30680000  0.58630000  1.0 0.1177682145
H  H82  1  0.96280000  0.69320000  0.58630000  1.0 0.1177682145
H  H83  1  0.19320000  0.46280000  0.58630000  1.0 0.1177682145
H  H84  1  0.80680000  0.53720000  0.58630000  1.0 0.1177682145
H  H85  1  0.02020000  0.24540000  0.48080000  1.0 0.1177682145
H  H86  1  0.97980000  0.75460000  0.48080000  1.0 0.1177682145
H  H87  1  0.25460000  0.47980000  0.48080000  1.0 0.1177682145
H  H88  1  0.74540000  0.52020000  0.48080000  1.0 0.1177682145
H  H89  1  0.10780000  0.13520000  0.60730000  1.0 0.1026076553
H  H90  1  0.89220000  0.86480000  0.60730000  1.0 0.1026076553
H  H91  1  0.36480000  0.39220000  0.60730000  1.0 0.1026076553
H  H92  1  0.63520000  0.60780000  0.60730000  1.0 0.1026076553
H  H93  1  0.13030000  0.19990000  0.70970000  1.0 0.0811121243
H  H94  1  0.86970000  0.80010000  0.70970000  1.0 0.0811121243
H  H95  1  0.30010000  0.36970000  0.70970000  1.0 0.0811121243
H  H96  1  0.69990000  0.63030000  0.70970000  1.0 0.0811121243
H  H97  1  0.15320000  0.26580000  0.91440000  1.0 0.0935937252
H  H98  1  0.84680000  0.73420000  0.91440000  1.0 0.0935937252
H  H99  1  0.23420000  0.34680000  0.91440000  1.0 0.0935937252
H  H100  1  0.76580000  0.65320000  0.91440000  1.0 0.0935937252
H  H101  1  0.13240000  0.20310000  0.02050000  1.0 0.1177682145
H  H102  1  0.86760000  0.79690000  0.02050000  1.0 0.1177682145
H  H103  1  0.29690000  0.36760000  0.02050000  1.0 0.1177682145
H  H104  1  0.70310000  0.63240000  0.02050000  1.0 0.1177682145
H  H105  1  0.98910000  0.17950000  0.90880000  1.0 0.1099136564
H  H106  1  0.01090000  0.82050000  0.90880000  1.0 0.1099136564
H  H107  1  0.32050000  0.51090000  0.90880000  1.0 0.1099136564
H  H108  1  0.67950000  0.48910000  0.90880000  1.0 0.1099136564
H  H109  1  0.01030000  0.24180000  0.80830000  1.0 0.0811121243
H  H110  1  0.98970000  0.75820000  0.80830000  1.0 0.0811121243
H  H111  1  0.25820000  0.48970000  0.80830000  1.0 0.0811121243
H  H112  1  0.74180000  0.51030000  0.80830000  1.0 0.0811121243
H  H113  1  0.09360000  0.07690000  0.21270000  1.0 0.0811121243
H  H114  1  0.90640000  0.92310000  0.21270000  1.0 0.0811121243
H  H115  1  0.42310000  0.40640000  0.21270000  1.0 0.0811121243
H  H116  1  0.57690000  0.59360000  0.21270000  1.0 0.0811121243
H  H117  1  0.11330000  0.14490000  0.11220000  1.0 0.1409817998
H  H118  1  0.88670000  0.85510000  0.11220000  1.0 0.1409817998
H  H119  1  0.35510000  0.38670000  0.11220000  1.0 0.1409817998
H  H120  1  0.64490000  0.61330000  0.11220000  1.0 0.1409817998
H  H121  1  0.97360000  0.11690000  0.99180000  1.0 0.1026076553
H  H122  1  0.02640000  0.88310000  0.99180000  1.0 0.1026076553
H  H123  1  0.38310000  0.52640000  0.99180000  1.0 0.1026076553
H  H124  1  0.61690000  0.47360000  0.99180000  1.0 0.1026076553
H  H125  1  0.95440000  0.04990000  0.08910000  1.0 0.0811121243
H  H126  1  0.04560000  0.95010000  0.08910000  1.0 0.0811121243
H  H127  1  0.45010000  0.54560000  0.08910000  1.0 0.0811121243
H  H128  1  0.54990000  0.45440000  0.08910000  1.0 0.0811121243
Ru  Ru1  1  0.61419000  0.88581000  0.45324000  1.0 1.4999449765
Ru  Ru2  1  0.38581000  0.11419000  0.45324000  1.0 1.4999449765
Ru  Ru3  1  0.88581000  0.38581000  0.54676000  1.0 1.4999449765
Ru  Ru4  1  0.11419000  0.61419000  0.54676000  1.0 1.4999449765
W  W1  1  0.64971000  0.94695000  0.26710000  1.0 2.3775087113
W  W2  1  0.35029000  0.05305000  0.26710000  1.0 2.3775087113
W  W3  1  0.44695000  0.14971000  0.26710000  1.0 2.3775087113
W  W4  1  0.55305000  0.85029000  0.26710000  1.0 2.3775087113
W  W5  1  0.72674000  0.87058000  0.09944000  1.0 2.4549762522
W  W6  1  0.27326000  0.12942000  0.09944000  1.0 2.4549762522
W  W7  1  0.37058000  0.22674000  0.09944000  1.0 2.4549762522
W  W8  1  0.62942000  0.77326000  0.09944000  1.0 2.4549762522
W  W9  1  0.76089000  0.73911000  0.13355000  1.0 2.3775087113
W  W10  1  0.23911000  0.26089000  0.13355000  1.0 2.3775087113
W  W11  1  0.82822000  0.77876000  0.33953000  1.0 2.3696659421
W  W12  1  0.17178000  0.22124000  0.33953000  1.0 2.3696659421
W  W13  1  0.27876000  0.32822000  0.33953000  1.0 2.3696659421
W  W14  1  0.72124000  0.67178000  0.33953000  1.0 2.3696659421
W  W15  1  0.75820000  0.84856000  0.49350000  1.0 2.3611941849
W  W16  1  0.24180000  0.15144000  0.49350000  1.0 2.3611941849
W  W17  1  0.34856000  0.25820000  0.49350000  1.0 2.3611941849
W  W18  1  0.65144000  0.74180000  0.49350000  1.0 2.3611941849
W  W19  1  0.79346000  0.90892000  0.30685000  1.0 2.1133485863
W  W20  1  0.20654000  0.09108000  0.30685000  1.0 2.1133485863
W  W21  1  0.40892000  0.29346000  0.30685000  1.0 2.1133485863
W  W22  1  0.59108000  0.70654000  0.30685000  1.0 2.1133485863
W  W23  1  0.94695000  0.35029000  0.73290000  1.0 2.3775087113
W  W24  1  0.05305000  0.64971000  0.73290000  1.0 2.3775087113
W  W25  1  0.14971000  0.55305000  0.73290000  1.0 2.3775087113
W  W26  1  0.85029000  0.44695000  0.73290000  1.0 2.3775087113
W  W27  1  0.87058000  0.27326000  0.90056000  1.0 2.4549762522
W  W28  1  0.12942000  0.72674000  0.90056000  1.0 2.4549762522
W  W29  1  0.22674000  0.62942000  0.90056000  1.0 2.4549762522
W  W30  1  0.77326000  0.37058000  0.90056000  1.0 2.4549762522
W  W31  1  0.73911000  0.23911000  0.86645000  1.0 2.3775087113
W  W32  1  0.26089000  0.76089000  0.86645000  1.0 2.3775087113
W  W33  1  0.77876000  0.17178000  0.66047000  1.0 2.3696659421
W  W34  1  0.22124000  0.82822000  0.66047000  1.0 2.3696659421
W  W35  1  0.32822000  0.72124000  0.66047000  1.0 2.3696659421
W  W36  1  0.67178000  0.27876000  0.66047000  1.0 2.3696659421
W  W37  1  0.84856000  0.24180000  0.50650000  1.0 2.3611941849
W  W38  1  0.15144000  0.75820000  0.50650000  1.0 2.3611941849
W  W39  1  0.25820000  0.65144000  0.50650000  1.0 2.3611941849
W  W40  1  0.74180000  0.34856000  0.50650000  1.0 2.3611941849
W  W41  1  0.90892000  0.20654000  0.69315000  1.0 2.1154875075
W  W42  1  0.09108000  0.79346000  0.69315000  1.0 2.1133485863
W  W43  1  0.29346000  0.59108000  0.69315000  1.0 2.1133485863
W  W44  1  0.70654000  0.40892000  0.69315000  1.0 2.1133485863
C  C1  1  0.89350000  0.99200000  0.65340000  1.0 0.0291542836
C  C2  1  0.10650000  0.00800000  0.65340000  1.0 0.0291542836
C  C3  1  0.49200000  0.39350000  0.65340000  1.0 0.0291542836
C  C4  1  0.50800000  0.60650000  0.65340000  1.0 0.0291542836
C  C5  1  0.85240000  0.00500000  0.59670000  1.0 -0.2099192218
C  C6  1  0.14760000  0.99500000  0.59670000  1.0 -0.2099192218
C  C7  1  0.50500000  0.35240000  0.59670000  1.0 -0.2099192218
C  C8  1  0.49500000  0.64760000  0.59670000  1.0 -0.2099192218
C  C9  1  0.86040000  0.04620000  0.53480000  1.0 0.0935937252
C  C10  1  0.13960000  0.95380000  0.53480000  1.0 0.0935937252
C  C11  1  0.54620000  0.36040000  0.53480000  1.0 0.0935937252
C  C12  1  0.45380000  0.63960000  0.53480000  1.0 0.0935937252
C  C13  1  0.91010000  0.07370000  0.53760000  1.0 -0.2099192218
C  C14  1  0.08990000  0.92630000  0.53760000  1.0 -0.2099192218
C  C15  1  0.57370000  0.41010000  0.53760000  1.0 -0.2099192218
C  C16  1  0.42630000  0.58990000  0.53760000  1.0 -0.2099192218
C  C17  1  0.94890000  0.05880000  0.59770000  1.0 0.0291542836
C  C18  1  0.05110000  0.94120000  0.59770000  1.0 0.0291542836
C  C19  1  0.55880000  0.44890000  0.59770000  1.0 0.0291542836
C  C20  1  0.44120000  0.55110000  0.59770000  1.0 0.0291542836
C  C21  1  0.72790000  0.05260000  0.40890000  1.0 0.0935937252
C  C22  1  0.27210000  0.94740000  0.40890000  1.0 0.0935937252
C  C23  1  0.55260000  0.22790000  0.40890000  1.0 0.0935937252
C  C24  1  0.44740000  0.77210000  0.40890000  1.0 0.0935937252
C  C25  1  0.76530000  0.04150000  0.47190000  1.0 -0.1975660111
C  C26  1  0.23470000  0.95850000  0.47190000  1.0 -0.1975660111
C  C27  1  0.54150000  0.26530000  0.47190000  1.0 -0.1975660111
C  C28  1  0.45850000  0.73470000  0.47190000  1.0 -0.1975660111
C  C29  1  0.81810000  0.06020000  0.46900000  1.0 0.0683581242
C  C30  1  0.18190000  0.93980000  0.46900000  1.0 0.0683581242
C  C31  1  0.56020000  0.31810000  0.46900000  1.0 0.0683581242
C  C32  1  0.43980000  0.68190000  0.46900000  1.0 0.0683581242
C  C33  1  0.82960000  0.09350000  0.39840000  1.0 -0.2251011516
C  C34  1  0.17040000  0.90650000  0.39840000  1.0 -0.2251011516
C  C35  1  0.59350000  0.32960000  0.39840000  1.0 -0.2251011516
C  C36  1  0.40650000  0.67040000  0.39840000  1.0 -0.2251011516
C  C37  1  0.79060000  0.10660000  0.33540000  1.0 0.037543714
C  C38  1  0.20940000  0.89340000  0.33540000  1.0 0.037543714
C  C39  1  0.60660000  0.29060000  0.33540000  1.0 0.037543714
C  C40  1  0.39340000  0.70940000  0.33540000  1.0 0.037543714
C  C41  1  0.75130000  0.11920000  0.08660000  1.0 0.0683581242
C  C42  1  0.24870000  0.88080000  0.08660000  1.0 0.0683581242
C  C43  1  0.61920000  0.25130000  0.08660000  1.0 0.0683581242
C  C44  1  0.38080000  0.74870000  0.08660000  1.0 0.0683581242
C  C45  1  0.78960000  0.10700000  0.02310000  1.0 -0.1975660111
C  C46  1  0.21040000  0.89300000  0.02310000  1.0 -0.1975660111
C  C47  1  0.60700000  0.28960000  0.02310000  1.0 -0.1975660111
C  C48  1  0.39300000  0.71040000  0.02310000  1.0 -0.1975660111
C  C49  1  0.81640000  0.05930000  0.02360000  1.0 0.0566926439
C  C50  1  0.18360000  0.94070000  0.02360000  1.0 0.0566926439
C  C51  1  0.55930000  0.31640000  0.02360000  1.0 0.0566926439
C  C52  1  0.44070000  0.68360000  0.02360000  1.0 0.0566926439
C  C53  1  0.80310000  0.02290000  0.08880000  1.0 -0.2197806379
C  C54  1  0.19690000  0.97710000  0.08880000  1.0 -0.2197806379
C  C55  1  0.52290000  0.30310000  0.08880000  1.0 -0.2197806379
C  C56  1  0.47710000  0.69690000  0.08880000  1.0 -0.2197806379
C  C57  1  0.76570000  0.03570000  0.14820000  1.0 0.048677314
C  C58  1  0.23430000  0.96430000  0.14820000  1.0 0.048677314
C  C59  1  0.53570000  0.26570000  0.14820000  1.0 0.048677314
C  C60  1  0.46430000  0.73430000  0.14820000  1.0 0.048677314
C  C61  1  0.91470000  0.06870000  0.83120000  1.0 0.048677314
C  C62  1  0.08530000  0.93130000  0.83120000  1.0 0.048677314
C  C63  1  0.56870000  0.41470000  0.83120000  1.0 0.048677314
C  C64  1  0.43130000  0.58530000  0.83120000  1.0 0.048677314
C  C65  1  0.87330000  0.08000000  0.89270000  1.0 -0.2099192218
C  C66  1  0.12670000  0.92000000  0.89270000  1.0 -0.2099192218
C  C67  1  0.58000000  0.37330000  0.89270000  1.0 -0.2099192218
C  C68  1  0.42000000  0.62670000  0.89270000  1.0 -0.2099192218
C  C69  1  0.85820000  0.04690000  0.95740000  1.0 0.0683581242
C  C70  1  0.14180000  0.95310000  0.95740000  1.0 0.0683581242
C  C71  1  0.54690000  0.35820000  0.95740000  1.0 0.0683581242
C  C72  1  0.45310000  0.64180000  0.95740000  1.0 0.0683581242
C  C73  1  0.89000000  0.99810000  0.96320000  1.0 -0.2675105716
C  C74  1  0.11000000  0.00190000  0.96320000  1.0 -0.2675105716
C  C75  1  0.49810000  0.39000000  0.96320000  1.0 -0.2675105716
C  C76  1  0.50190000  0.61000000  0.96320000  1.0 -0.2675105716
C  C77  1  0.93010000  0.98660000  0.90470000  1.0 0.0173775898
C  C78  1  0.06990000  0.01340000  0.90470000  1.0 0.0173775898
C  C79  1  0.48660000  0.43010000  0.90470000  1.0 0.0173775898
C  C80  1  0.51340000  0.56990000  0.90470000  1.0 0.0173775898
C  C81  1  0.99200000  0.10650000  0.34660000  1.0 0.0291542836
C  C82  1  0.00800000  0.89350000  0.34660000  1.0 0.0291542836
C  C83  1  0.39350000  0.50800000  0.34660000  1.0 0.0291542836
C  C84  1  0.60650000  0.49200000  0.34660000  1.0 0.0291542836
C  C85  1  0.00500000  0.14760000  0.40330000  1.0 -0.2099192218
C  C86  1  0.99500000  0.85240000  0.40330000  1.0 -0.2099192218
C  C87  1  0.35240000  0.49500000  0.40330000  1.0 -0.2099192218
C  C88  1  0.64760000  0.50500000  0.40330000  1.0 -0.2099192218
C  C89  1  0.04620000  0.13960000  0.46520000  1.0 0.0935937252
C  C90  1  0.95380000  0.86040000  0.46520000  1.0 0.0935937252
C  C91  1  0.36040000  0.45380000  0.46520000  1.0 0.0935937252
C  C92  1  0.63960000  0.54620000  0.46520000  1.0 0.0935937252
C  C93  1  0.07370000  0.08990000  0.46240000  1.0 -0.2099192218
C  C94  1  0.92630000  0.91010000  0.46240000  1.0 -0.2099192218
C  C95  1  0.41010000  0.42630000  0.46240000  1.0 -0.2099192218
C  C96  1  0.58990000  0.57370000  0.46240000  1.0 -0.2099192218
C  C97  1  0.05880000  0.05110000  0.40230000  1.0 0.0291542836
C  C98  1  0.94120000  0.94890000  0.40230000  1.0 0.0291542836
C  C99  1  0.44890000  0.44120000  0.40230000  1.0 0.0291542836
C  C100  1  0.55110000  0.55880000  0.40230000  1.0 0.0291542836
C  C101  1  0.05260000  0.27210000  0.59110000  1.0 0.0935937252
C  C102  1  0.94740000  0.72790000  0.59110000  1.0 0.0935937252
C  C103  1  0.22790000  0.44740000  0.59110000  1.0 0.0935937252
C  C104  1  0.77210000  0.55260000  0.59110000  1.0 0.0935937252
C  C105  1  0.04150000  0.23470000  0.52810000  1.0 -0.1975660111
C  C106  1  0.95850000  0.76530000  0.52810000  1.0 -0.1975660111
C  C107  1  0.26530000  0.45850000  0.52810000  1.0 -0.1975660111
C  C108  1  0.73470000  0.54150000  0.52810000  1.0 -0.1975660111
C  C109  1  0.06020000  0.18190000  0.53100000  1.0 0.0683581242
C  C110  1  0.93980000  0.81810000  0.53100000  1.0 0.0683581242
C  C111  1  0.31810000  0.43980000  0.53100000  1.0 0.0683581242
C  C112  1  0.68190000  0.56020000  0.53100000  1.0 0.0683581242
C  C113  1  0.09350000  0.17040000  0.60160000  1.0 -0.2251011516
C  C114  1  0.90650000  0.82960000  0.60160000  1.0 -0.2251011516
C  C115  1  0.32960000  0.40650000  0.60160000  1.0 -0.2251011516
C  C116  1  0.67040000  0.59350000  0.60160000  1.0 -0.2251011516
C  C117  1  0.10660000  0.20940000  0.66460000  1.0 0.037543714
C  C118  1  0.89340000  0.79060000  0.66460000  1.0 0.037543714
C  C119  1  0.29060000  0.39340000  0.66460000  1.0 0.037543714
C  C120  1  0.70940000  0.60660000  0.66460000  1.0 0.037543714
C  C121  1  0.11920000  0.24870000  0.91340000  1.0 0.0683581242
C  C122  1  0.88080000  0.75130000  0.91340000  1.0 0.0683581242
C  C123  1  0.25130000  0.38080000  0.91340000  1.0 0.0683581242
C  C124  1  0.74870000  0.61920000  0.91340000  1.0 0.0683581242
C  C125  1  0.10700000  0.21040000  0.97690000  1.0 -0.1975660111
C  C126  1  0.89300000  0.78960000  0.97690000  1.0 -0.1975660111
C  C127  1  0.28960000  0.39300000  0.97690000  1.0 -0.1975660111
C  C128  1  0.71040000  0.60700000  0.97690000  1.0 -0.1975660111
C  C129  1  0.05930000  0.18360000  0.97640000  1.0 0.0566926439
C  C130  1  0.94070000  0.81640000  0.97640000  1.0 0.0566926439
C  C131  1  0.31640000  0.44070000  0.97640000  1.0 0.0566926439
C  C132  1  0.68360000  0.55930000  0.97640000  1.0 0.0566926439
C  C133  1  0.02290000  0.19690000  0.91120000  1.0 -0.2197806379
C  C134  1  0.97710000  0.80310000  0.91120000  1.0 -0.2197806379
C  C135  1  0.30310000  0.47710000  0.91120000  1.0 -0.2197806379
C  C136  1  0.69690000  0.52290000  0.91120000  1.0 -0.2197806379
C  C137  1  0.03570000  0.23430000  0.85180000  1.0 0.048677314
C  C138  1  0.96430000  0.76570000  0.85180000  1.0 0.048677314
C  C139  1  0.26570000  0.46430000  0.85180000  1.0 0.048677314
C  C140  1  0.73430000  0.53570000  0.85180000  1.0 0.048677314
C  C141  1  0.06870000  0.08530000  0.16880000  1.0 0.048677314
C  C142  1  0.93130000  0.91470000  0.16880000  1.0 0.048677314
C  C143  1  0.41470000  0.43130000  0.16880000  1.0 0.048677314
C  C144  1  0.58530000  0.56870000  0.16880000  1.0 0.048677314
C  C145  1  0.08000000  0.12670000  0.10730000  1.0 -0.2099192218
C  C146  1  0.92000000  0.87330000  0.10730000  1.0 -0.2099192218
C  C147  1  0.37330000  0.42000000  0.10730000  1.0 -0.2099192218
C  C148  1  0.62670000  0.58000000  0.10730000  1.0 -0.2099192218
C  C149  1  0.04690000  0.14180000  0.04260000  1.0 0.0683581242
C  C150  1  0.95310000  0.85820000  0.04260000  1.0 0.0683581242
C  C151  1  0.35820000  0.45310000  0.04260000  1.0 0.0683581242
C  C152  1  0.64180000  0.54690000  0.04260000  1.0 0.0683581242
C  C153  1  0.99810000  0.11000000  0.03680000  1.0 -0.2675105716
C  C154  1  0.00190000  0.89000000  0.03680000  1.0 -0.2675105716
C  C155  1  0.39000000  0.50190000  0.03680000  1.0 -0.2675105716
C  C156  1  0.61000000  0.49810000  0.03680000  1.0 -0.2675105716
C  C157  1  0.98660000  0.06990000  0.09530000  1.0 0.0173775898
C  C158  1  0.01340000  0.93010000  0.09530000  1.0 0.0173775898
C  C159  1  0.43010000  0.51340000  0.09530000  1.0 0.0173775898
C  C160  1  0.56990000  0.48660000  0.09530000  1.0 0.0173775898
N  N1  1  0.94180000  0.01770000  0.65270000  1.0 -0.2099192218
N  N2  1  0.05820000  0.98230000  0.65270000  1.0 -0.2099192218
N  N3  1  0.51770000  0.44180000  0.65270000  1.0 -0.2099192218
N  N4  1  0.48230000  0.55820000  0.65270000  1.0 -0.2099192218
N  N5  1  0.73870000  0.08560000  0.33840000  1.0 -0.2639124776
N  N6  1  0.26130000  0.91440000  0.33840000  1.0 -0.2639124776
N  N7  1  0.58560000  0.23870000  0.33840000  1.0 -0.2639124776
N  N8  1  0.41440000  0.76130000  0.33840000  1.0 -0.2639124776
N  N9  1  0.73810000  0.08350000  0.14910000  1.0 -0.2351905192
N  N10  1  0.26190000  0.91650000  0.14910000  1.0 -0.2351905192
N  N11  1  0.58350000  0.23810000  0.14910000  1.0 -0.2351905192
N  N12  1  0.41650000  0.76190000  0.14910000  1.0 -0.2351905192
N  N13  1  0.94180000  0.02050000  0.83770000  1.0 -0.2251011516
N  N14  1  0.05820000  0.97950000  0.83770000  1.0 -0.2251011516
N  N15  1  0.52050000  0.44180000  0.83770000  1.0 -0.2251011516
N  N16  1  0.47950000  0.55820000  0.83770000  1.0 -0.2251011516
N  N17  1  0.01770000  0.05820000  0.34730000  1.0 -0.2099192218
N  N18  1  0.98230000  0.94180000  0.34730000  1.0 -0.2099192218
N  N19  1  0.44180000  0.48230000  0.34730000  1.0 -0.2099192218
N  N20  1  0.55820000  0.51770000  0.34730000  1.0 -0.2099192218
N  N21  1  0.08560000  0.26130000  0.66160000  1.0 -0.2639124776
N  N22  1  0.91440000  0.73870000  0.66160000  1.0 -0.2639124776
N  N23  1  0.23870000  0.41440000  0.66160000  1.0 -0.2639124776
N  N24  1  0.76130000  0.58560000  0.66160000  1.0 -0.2639124776
N  N25  1  0.08350000  0.26190000  0.85090000  1.0 -0.2351905192
N  N26  1  0.91650000  0.73810000  0.85090000  1.0 -0.2351905192
N  N27  1  0.23810000  0.41650000  0.85090000  1.0 -0.2351905192
N  N28  1  0.76190000  0.58350000  0.85090000  1.0 -0.2351905192
N  N29  1  0.02050000  0.05820000  0.16230000  1.0 -0.2251011516
N  N30  1  0.97950000  0.94180000  0.16230000  1.0 -0.2251011516
N  N31  1  0.44180000  0.47950000  0.16230000  1.0 -0.2251011516
N  N32  1  0.55820000  0.52050000  0.16230000  1.0 -0.2251011516
O  O1  1  0.64650000  0.01530000  0.23820000  1.0 -0.762339973
O  O2  1  0.35350000  0.98470000  0.23820000  1.0 -0.762339973
O  O3  1  0.51530000  0.14650000  0.23820000  1.0 -0.762339973
O  O4  1  0.48470000  0.85350000  0.23820000  1.0 -0.762339973
O  O5  1  0.74540000  0.91430000  0.01480000  1.0 -0.9299384067
O  O6  1  0.25460000  0.08570000  0.01480000  1.0 -0.9299384067
O  O7  1  0.41430000  0.24540000  0.01480000  1.0 -0.9299384067
O  O8  1  0.58570000  0.75460000  0.01480000  1.0 -0.9299384067
O  O9  1  0.72250000  0.94230000  0.30490000  1.0 -0.8987800961
O  O10  1  0.27750000  0.05770000  0.30490000  1.0 -0.8987800961
O  O11  1  0.44230000  0.22250000  0.30490000  1.0 -0.8987800961
O  O12  1  0.55770000  0.77750000  0.30490000  1.0 -0.8987800961
O  O13  1  0.77720000  0.88880000  0.19030000  1.0 -0.9138710881
O  O14  1  0.22280000  0.11120000  0.19030000  1.0 -0.9138710881
O  O15  1  0.38880000  0.27720000  0.19030000  1.0 -0.9138710881
O  O16  1  0.61120000  0.72280000  0.19030000  1.0 -0.9138710881
O  O17  1  0.84800000  0.85270000  0.30780000  1.0 -0.9299384067
O  O18  1  0.15200000  0.14730000  0.30780000  1.0 -0.9299384067
O  O19  1  0.35270000  0.34800000  0.30780000  1.0 -0.9299384067
O  O20  1  0.64730000  0.65200000  0.30780000  1.0 -0.9299384067
O  O21  1  0.79290000  0.90840000  0.42960000  1.0 -0.9224620322
O  O22  1  0.20710000  0.09160000  0.42960000  1.0 -0.9224620322
O  O23  1  0.40840000  0.29290000  0.42960000  1.0 -0.9224620322
O  O24  1  0.59160000  0.70710000  0.42960000  1.0 -0.9224620322
O  O25  1  0.67440000  0.91590000  0.16240000  1.0 -0.9224620322
O  O26  1  0.32560000  0.08410000  0.16240000  1.0 -0.9224620322
O  O27  1  0.41590000  0.17440000  0.16240000  1.0 -0.9224620322
O  O28  1  0.58410000  0.82560000  0.16240000  1.0 -0.9224620322
O  O29  1  0.77130000  0.80770000  0.07360000  1.0 -0.9518651426
O  O30  1  0.22870000  0.19230000  0.07360000  1.0 -0.9518651426
O  O31  1  0.30770000  0.27130000  0.07360000  1.0 -0.9518651426
O  O32  1  0.69230000  0.72870000  0.07360000  1.0 -0.9518651426
O  O33  1  0.81070000  0.76340000  0.21880000  1.0 -0.967911468
O  O34  1  0.18930000  0.23660000  0.21880000  1.0 -0.967911468
O  O35  1  0.26340000  0.31070000  0.21880000  1.0 -0.967911468
O  O36  1  0.73660000  0.68930000  0.21880000  1.0 -0.967911468
O  O37  1  0.81870000  0.80380000  0.45690000  1.0 -0.9518651426
O  O38  1  0.18130000  0.19620000  0.45690000  1.0 -0.9518651426
O  O39  1  0.30380000  0.31870000  0.45690000  1.0 -0.9518651426
O  O40  1  0.69620000  0.68130000  0.45690000  1.0 -0.9518651426
O  O41  1  0.69030000  0.88450000  0.48450000  1.0 -0.9224620322
O  O42  1  0.30970000  0.11550000  0.48450000  1.0 -0.9224620322
O  O43  1  0.38450000  0.19030000  0.48450000  1.0 -0.9224620322
O  O44  1  0.61550000  0.80970000  0.48450000  1.0 -0.9224620322
O  O45  1  0.62600000  0.95110000  0.38840000  1.0 -0.8875482018
O  O46  1  0.37400000  0.04890000  0.38840000  1.0 -0.8875482018
O  O47  1  0.45110000  0.12600000  0.38840000  1.0 -0.8875482018
O  O48  1  0.54890000  0.87400000  0.38840000  1.0 -0.8875482018
O  O49  1  0.57720000  0.92280000  0.23990000  1.0 -0.8987800961
O  O50  1  0.42280000  0.07720000  0.23990000  1.0 -0.8987800961
O  O51  1  0.66440000  0.83560000  0.04160000  1.0 -0.9958881522
O  O52  1  0.33560000  0.16440000  0.04160000  1.0 -0.9958881522
O  O53  1  0.71700000  0.78300000  0.51070000  1.0 -0.9518651426
O  O54  1  0.28300000  0.21700000  0.51070000  1.0 -0.9518651426
O  O55  1  0.74670000  0.83050000  0.34180000  1.0 -1.1097773994
O  O56  1  0.25330000  0.16950000  0.34180000  1.0 -1.1097773994
O  O57  1  0.33050000  0.24670000  0.34180000  1.0 -1.1097773994
O  O58  1  0.66950000  0.75330000  0.34180000  1.0 -1.1097773994
O  O59  1  0.69850000  0.80150000  0.19810000  1.0 -1.0990837897
O  O60  1  0.30150000  0.19850000  0.19810000  1.0 -1.0990837897
O  O61  1  0.64320000  0.85680000  0.31440000  1.0 -1.0717151846
O  O62  1  0.35680000  0.14320000  0.31440000  1.0 -1.0717151846
O  O63  1  0.78320000  0.71680000  0.36420000  1.0 -0.9518651426
O  O64  1  0.21680000  0.28320000  0.36420000  1.0 -0.9518651426
O  O65  1  0.63260000  0.13260000  0.32910000  1.0 -0.8218422169
O  O66  1  0.36740000  0.86740000  0.32910000  1.0 -0.8218422169
O  O67  1  0.63320000  0.13320000  0.16120000  1.0 -0.8422747339
O  O68  1  0.36680000  0.86680000  0.16120000  1.0 -0.8422747339
O  O69  1  0.01530000  0.35350000  0.76180000  1.0 -0.762339973
O  O70  1  0.98470000  0.64650000  0.76180000  1.0 -0.762339973
O  O71  1  0.14650000  0.48470000  0.76180000  1.0 -0.762339973
O  O72  1  0.85350000  0.51530000  0.76180000  1.0 -0.762339973
O  O73  1  0.91430000  0.25460000  0.98520000  1.0 -0.9299384067
O  O74  1  0.08570000  0.74540000  0.98520000  1.0 -0.9299384067
O  O75  1  0.24540000  0.58570000  0.98520000  1.0 -0.9299384067
O  O76  1  0.75460000  0.41430000  0.98520000  1.0 -0.9299384067
O  O77  1  0.94230000  0.27750000  0.69510000  1.0 -0.8987800961
O  O78  1  0.05770000  0.72250000  0.69510000  1.0 -0.8987800961
O  O79  1  0.22250000  0.55770000  0.69510000  1.0 -0.8987800961
O  O80  1  0.77750000  0.44230000  0.69510000  1.0 -0.8987800961
O  O81  1  0.88880000  0.22280000  0.80970000  1.0 -0.9138710881
O  O82  1  0.11120000  0.77720000  0.80970000  1.0 -0.9138710881
O  O83  1  0.27720000  0.61120000  0.80970000  1.0 -0.9138710881
O  O84  1  0.72280000  0.38880000  0.80970000  1.0 -0.9138710881
O  O85  1  0.85270000  0.15200000  0.69220000  1.0 -0.9299384067
O  O86  1  0.14730000  0.84800000  0.69220000  1.0 -0.9299384067
O  O87  1  0.34800000  0.64730000  0.69220000  1.0 -0.9299384067
O  O88  1  0.65200000  0.35270000  0.69220000  1.0 -0.9299384067
O  O89  1  0.90840000  0.20710000  0.57040000  1.0 -0.9224620322
O  O90  1  0.09160000  0.79290000  0.57040000  1.0 -0.9224620322
O  O91  1  0.29290000  0.59160000  0.57040000  1.0 -0.9224620322
O  O92  1  0.70710000  0.40840000  0.57040000  1.0 -0.9224620322
O  O93  1  0.91590000  0.32560000  0.83760000  1.0 -0.9224620322
O  O94  1  0.08410000  0.67440000  0.83760000  1.0 -0.9224620322
O  O95  1  0.17440000  0.58410000  0.83760000  1.0 -0.9224620322
O  O96  1  0.82560000  0.41590000  0.83760000  1.0 -0.9224620322
O  O97  1  0.80770000  0.22870000  0.92640000  1.0 -0.9518651426
O  O98  1  0.19230000  0.77130000  0.92640000  1.0 -0.9518651426
O  O99  1  0.27130000  0.69230000  0.92640000  1.0 -0.9518651426
O  O100  1  0.72870000  0.30770000  0.92640000  1.0 -0.9518651426
O  O101  1  0.76340000  0.18930000  0.78120000  1.0 -0.967911468
O  O102  1  0.23660000  0.81070000  0.78120000  1.0 -0.967911468
O  O103  1  0.31070000  0.73660000  0.78120000  1.0 -0.967911468
O  O104  1  0.68930000  0.26340000  0.78120000  1.0 -0.967911468
O  O105  1  0.80380000  0.18130000  0.54310000  1.0 -0.9518651426
O  O106  1  0.19620000  0.81870000  0.54310000  1.0 -0.9518651426
O  O107  1  0.31870000  0.69620000  0.54310000  1.0 -0.9518651426
O  O108  1  0.68130000  0.30380000  0.54310000  1.0 -0.9518651426
O  O109  1  0.88450000  0.30970000  0.51550000  1.0 -0.9224620322
O  O110  1  0.11550000  0.69030000  0.51550000  1.0 -0.9224620322
O  O111  1  0.19030000  0.61550000  0.51550000  1.0 -0.9224620322
O  O112  1  0.80970000  0.38450000  0.51550000  1.0 -0.9224620322
O  O113  1  0.95110000  0.37400000  0.61160000  1.0 -0.8875482018
O  O114  1  0.04890000  0.62600000  0.61160000  1.0 -0.8875482018
O  O115  1  0.12600000  0.54890000  0.61160000  1.0 -0.8875482018
O  O116  1  0.87400000  0.45110000  0.61160000  1.0 -0.8875482018
O  O117  1  0.92280000  0.42280000  0.76010000  1.0 -0.8987800961
O  O118  1  0.07720000  0.57720000  0.76010000  1.0 -0.8987800961
O  O119  1  0.83560000  0.33560000  0.95840000  1.0 -0.9958881522
O  O120  1  0.16440000  0.66440000  0.95840000  1.0 -0.9958881522
O  O121  1  0.78300000  0.28300000  0.48930000  1.0 -0.9518651426
O  O122  1  0.21700000  0.71700000  0.48930000  1.0 -0.9518651426
O  O123  1  0.83050000  0.25330000  0.65820000  1.0 -1.1097773994
O  O124  1  0.16950000  0.74670000  0.65820000  1.0 -1.1097773994
O  O125  1  0.24670000  0.66950000  0.65820000  1.0 -1.1097773994
O  O126  1  0.75330000  0.33050000  0.65820000  1.0 -1.1097773994
O  O127  1  0.80150000  0.30150000  0.80190000  1.0 -1.0990837897
O  O128  1  0.19850000  0.69850000  0.80190000  1.0 -1.0990837897
O  O129  1  0.85680000  0.35680000  0.68560000  1.0 -1.0717151846
O  O130  1  0.14320000  0.64320000  0.68560000  1.0 -1.0717151846
O  O131  1  0.71680000  0.21680000  0.63580000  1.0 -0.9518651426
O  O132  1  0.28320000  0.78320000  0.63580000  1.0 -0.9518651426
O  O133  1  0.13260000  0.36740000  0.67090000  1.0 -0.8218422169
O  O134  1  0.86740000  0.63260000  0.67090000  1.0 -0.8218422169
O  O135  1  0.13320000  0.36680000  0.83880000  1.0 -0.8422747339
O  O136  1  0.86680000  0.63320000  0.83880000  1.0 -0.8422747339
