# DDEC6 charges by PACMAN v1.1 (https://github.com/mtap-research/PACMAN-charge/)
data_ZOSQIK_FSR_pacman
_symmetry_space_group_name_H-M   'P 1'
_cell_length_a   14.05700000
_cell_length_b   16.94700000
_cell_length_c   20.42700000
_cell_angle_alpha   73.98000000
_cell_angle_beta   74.49000000
_cell_angle_gamma   80.60000000
_symmetry_Int_Tables_number   1
_chemical_formula_structural   ZnH64(C46O3)2
_chemical_formula_sum   'Zn2 H128 C184 O12'
_cell_volume   4485.79100411
_cell_formula_units_Z   2
loop_
 _symmetry_equiv_pos_site_id
 _symmetry_equiv_pos_as_xyz
  1  'x, y, z'
loop_
 _atom_site_type_symbol
 _atom_site_label
 _atom_site_symmetry_multiplicity
 _atom_site_fract_x
 _atom_site_fract_y
 _atom_site_fract_z
 _atom_site_occupancy
 _atom_site_charge
Zn  Zn1  1  0.47170000  0.60758000  0.50003000  1.0 1.0000688303
Zn  Zn2  1  0.52830000  0.39242000  0.49997000  1.0 1.005934881
H  H1  1  0.23434000  0.09996000  0.10272000  1.0 0.1484225896
H  H2  1  0.12853000  0.14403000  0.09763000  1.0 0.1411457211
H  H3  1  0.21642000  0.15507000  0.03080000  1.0 0.1484225896
H  H4  1  0.14416000  0.63783000  0.18709000  1.0 0.1218450117
H  H5  1  0.28208000  0.03378000  0.97485000  1.0 0.1299901527
H  H6  1  0.24371000  0.91451000  0.88674000  1.0 0.1484225896
H  H7  1  0.29052000  0.84474000  0.94064000  1.0 0.1411457211
H  H8  1  0.33518000  0.92994000  0.91013000  1.0 0.1411457211
H  H9  1  0.96672000  0.84447000  0.15318000  1.0 0.1411457211
H  H10  1  0.92078000  0.88302000  0.08801000  1.0 0.1411457211
H  H11  1  0.91135000  0.93355000  0.14356000  1.0 0.1411457211
H  H12  1  0.03177000  0.02340000  0.13037000  1.0 0.1299901527
H  H13  1  0.11447000  0.74401000  0.11443000  1.0 0.1218450117
H  H14  1  0.08619000  0.84761000  0.91618000  1.0 0.1218450117
H  H15  1  0.08301000  0.39959000  0.28314000  1.0 0.1218450117
H  H16  1  0.08796000  0.83110000  0.81779000  1.0 0.1218450117
H  H17  1  0.00611000  0.69707000  0.70873000  1.0 0.1218450117
H  H18  1  0.66220000  0.14655000  0.61370000  1.0 0.1299901527
H  H19  1  0.66266000  0.22370000  0.55010000  1.0 0.1411457211
H  H20  1  0.63281000  0.23517000  0.62678000  1.0 0.1484225896
H  H21  1  0.82869000  0.25092000  0.48713000  1.0 0.1411457211
H  H22  1  0.05009000  0.22292000  0.58831000  1.0 0.1299901527
H  H23  1  0.01208000  0.32606000  0.43651000  1.0 0.1484225896
H  H24  1  0.01965000  0.23917000  0.42139000  1.0 0.1411457211
H  H25  1  0.09153000  0.25611000  0.46182000  1.0 0.1484225896
H  H26  1  0.93034000  0.11785000  0.75451000  1.0 0.1411457211
H  H27  1  0.93981000  0.21081000  0.74781000  1.0 0.1411457211
H  H28  1  0.02829000  0.15727000  0.71047000  1.0 0.1484225896
H  H29  1  0.24057000  0.01853000  0.46232000  1.0 0.1484225896
H  H30  1  0.14901000  0.07764000  0.48879000  1.0 0.1484225896
H  H31  1  0.13703000  0.01446000  0.44880000  1.0 0.1484225896
H  H32  1  0.21176000  0.70255000  0.65638000  1.0 0.1411457211
H  H33  1  0.27074000  0.74799000  0.68777000  1.0 0.1411457211
H  H34  1  0.30074000  0.75126000  0.60749000  1.0 0.1411457211
H  H35  1  0.63752000  0.60804000  0.82734000  1.0 0.1299901527
H  H36  1  0.72843000  0.70279000  0.85189000  1.0 0.1411457211
H  H37  1  0.80837000  0.66109000  0.89484000  1.0 0.1411457211
H  H38  1  0.70375000  0.69522000  0.93277000  1.0 0.1484225896
H  H39  1  0.73902000  0.52801000  0.00133000  1.0 0.1299901527
H  H40  1  0.69008000  0.32087000  0.04457000  1.0 0.1411457211
H  H41  1  0.62846000  0.38056000  0.09052000  1.0 0.1484225896
H  H42  1  0.74371000  0.38250000  0.06385000  1.0 0.1411457211
H  H43  1  0.33350000  0.39866000  0.39162000  1.0 0.1142373731
H  H44  1  0.23956000  0.64226000  0.37786000  1.0 0.1218450117
H  H45  1  0.14409000  0.63449000  0.30251000  1.0 0.1142373731
H  H46  1  0.01293000  0.02317000  0.58777000  1.0 0.1218450117
H  H47  1  0.93429000  0.94570000  0.75468000  1.0 0.1484225896
H  H48  1  0.88443000  0.88389000  0.73272000  1.0 0.1411457211
H  H49  1  0.88467000  0.97653000  0.69073000  1.0 0.1411457211
H  H50  1  0.26840000  0.87855000  0.54077000  1.0 0.1411457211
H  H51  1  0.49660000  0.44894000  0.84985000  1.0 0.1411457211
H  H52  1  0.59654000  0.44956000  0.79269000  1.0 0.1411457211
H  H53  1  0.53079000  0.53248000  0.79901000  1.0 0.1411457211
H  H54  1  0.23110000  0.39758000  0.31847000  1.0 0.1218450117
H  H55  1  0.73273000  0.24740000  0.77382000  1.0 0.1218450117
H  H56  1  0.71960000  0.04723000  0.70636000  1.0 0.1142373731
H  H57  1  0.65162000  0.94355000  0.71635000  1.0 0.1218450117
H  H58  1  0.52704000  0.74168000  0.84846000  1.0 0.1218450117
H  H59  1  0.67314000  0.31377000  0.85127000  1.0 0.1218450117
H  H60  1  0.71454000  0.84859000  0.64337000  1.0 0.1218450117
H  H61  1  0.46056000  0.75357000  0.75388000  1.0 0.1218450117
H  H62  1  0.69995000  0.80710000  0.54788000  1.0 0.1142373731
H  H63  1  0.44757000  0.70909000  0.65457000  1.0 0.1218450117
H  H64  1  0.50573000  0.33129000  0.04214000  1.0 0.1218450117
H  H65  1  0.76566000  0.90004000  0.89728000  1.0 0.1484225896
H  H66  1  0.87147000  0.85597000  0.90237000  1.0 0.1411457211
H  H67  1  0.78358000  0.84493000  0.96920000  1.0 0.1484225896
H  H68  1  0.85584000  0.36217000  0.81291000  1.0 0.1218450117
H  H69  1  0.71792000  0.96622000  0.02515000  1.0 0.1299901527
H  H70  1  0.75629000  0.08549000  0.11326000  1.0 0.1484225896
H  H71  1  0.70948000  0.15526000  0.05936000  1.0 0.1411457211
H  H72  1  0.66482000  0.07006000  0.08987000  1.0 0.1411457211
H  H73  1  0.03328000  0.15553000  0.84682000  1.0 0.1411457211
H  H74  1  0.07922000  0.11698000  0.91199000  1.0 0.1411457211
H  H75  1  0.08865000  0.06645000  0.85644000  1.0 0.1411457211
H  H76  1  0.96823000  0.97660000  0.86963000  1.0 0.1299901527
H  H77  1  0.88553000  0.25599000  0.88557000  1.0 0.1218450117
H  H78  1  0.91381000  0.15239000  0.08382000  1.0 0.1218450117
H  H79  1  0.91699000  0.60041000  0.71686000  1.0 0.1218450117
H  H80  1  0.91204000  0.16890000  0.18221000  1.0 0.1218450117
H  H81  1  0.99389000  0.30293000  0.29127000  1.0 0.1218450117
H  H82  1  0.33780000  0.85345000  0.38630000  1.0 0.1299901527
H  H83  1  0.33734000  0.77630000  0.44990000  1.0 0.1411457211
H  H84  1  0.36719000  0.76483000  0.37322000  1.0 0.1484225896
H  H85  1  0.17131000  0.74908000  0.51287000  1.0 0.1411457211
H  H86  1  0.94991000  0.77708000  0.41169000  1.0 0.1299901527
H  H87  1  0.98792000  0.67394000  0.56349000  1.0 0.1484225896
H  H88  1  0.98035000  0.76083000  0.57861000  1.0 0.1411457211
H  H89  1  0.90847000  0.74389000  0.53818000  1.0 0.1411457211
H  H90  1  0.06966000  0.88215000  0.24549000  1.0 0.1411457211
H  H91  1  0.06019000  0.78919000  0.25219000  1.0 0.1411457211
H  H92  1  0.97171000  0.84273000  0.28953000  1.0 0.1484225896
H  H93  1  0.75943000  0.98147000  0.53768000  1.0 0.1484225896
H  H94  1  0.85099000  0.92236000  0.51121000  1.0 0.1484225896
H  H95  1  0.86297000  0.98554000  0.55120000  1.0 0.1484225896
H  H96  1  0.78824000  0.29745000  0.34362000  1.0 0.1411457211
H  H97  1  0.72926000  0.25201000  0.31223000  1.0 0.1411457211
H  H98  1  0.69926000  0.24874000  0.39251000  1.0 0.1411457211
H  H99  1  0.36248000  0.39196000  0.17266000  1.0 0.1299901527
H  H100  1  0.27157000  0.29721000  0.14811000  1.0 0.1411457211
H  H101  1  0.19163000  0.33891000  0.10516000  1.0 0.1411457211
H  H102  1  0.29625000  0.30478000  0.06723000  1.0 0.1484225896
H  H103  1  0.26098000  0.47199000  0.99867000  1.0 0.1299901527
H  H104  1  0.30992000  0.67913000  0.95543000  1.0 0.1411457211
H  H105  1  0.37154000  0.61944000  0.90948000  1.0 0.1484225896
H  H106  1  0.25629000  0.61750000  0.93615000  1.0 0.1411457211
H  H107  1  0.66650000  0.60134000  0.60838000  1.0 0.1142373731
H  H108  1  0.76044000  0.35774000  0.62214000  1.0 0.1218450117
H  H109  1  0.85591000  0.36551000  0.69749000  1.0 0.1142373731
H  H110  1  0.98707000  0.97683000  0.41223000  1.0 0.1218450117
H  H111  1  0.06571000  0.05430000  0.24532000  1.0 0.1484225896
H  H112  1  0.11557000  0.11611000  0.26728000  1.0 0.1411457211
H  H113  1  0.11533000  0.02347000  0.30927000  1.0 0.1411457211
H  H114  1  0.73160000  0.12145000  0.45923000  1.0 0.1411457211
H  H115  1  0.50340000  0.55106000  0.15015000  1.0 0.1411457211
H  H116  1  0.40346000  0.55044000  0.20731000  1.0 0.1411457211
H  H117  1  0.46921000  0.46752000  0.20099000  1.0 0.1411457211
H  H118  1  0.76890000  0.60242000  0.68153000  1.0 0.1218450117
H  H119  1  0.26727000  0.75260000  0.22618000  1.0 0.1218450117
H  H120  1  0.28040000  0.95277000  0.29364000  1.0 0.1142373731
H  H121  1  0.34838000  0.05645000  0.28365000  1.0 0.1218450117
H  H122  1  0.47296000  0.25832000  0.15154000  1.0 0.1218450117
H  H123  1  0.32686000  0.68623000  0.14873000  1.0 0.1218450117
H  H124  1  0.28546000  0.15141000  0.35663000  1.0 0.1218450117
H  H125  1  0.53944000  0.24643000  0.24612000  1.0 0.1218450117
H  H126  1  0.30005000  0.19290000  0.45212000  1.0 0.1218450117
H  H127  1  0.55243000  0.29091000  0.34543000  1.0 0.1218450117
H  H128  1  0.49427000  0.66871000  0.95786000  1.0 0.1218450117
C  C1  1  0.16110000  0.03940000  0.05590000  1.0 0.2106579486
C  C2  1  0.18770000  0.11730000  0.07350000  1.0 -0.4690926669
C  C3  1  0.11980000  0.58980000  0.18750000  1.0 -0.2103006095
C  C4  1  0.22580000  0.00780000  0.00110000  1.0 -0.2790135514
C  C5  1  0.20480000  0.93580000  0.98570000  1.0 0.1798428688
C  C6  1  0.27510000  0.90320000  0.92510000  1.0 -0.4690926669
C  C7  1  0.05070000  0.93050000  0.07840000  1.0 0.161036374
C  C8  1  0.95340000  0.89460000  0.11960000  1.0 -0.4513763841
C  C9  1  0.07420000  0.00210000  0.09450000  1.0 -0.2898585231
C  C10  1  0.10080000  0.81360000  0.01810000  1.0 0.1299901527
C  C11  1  0.09980000  0.74060000  0.07360000  1.0 -0.2103006095
C  C12  1  0.08370000  0.80230000  0.95440000  1.0 -0.2003460558
C  C13  1  0.06390000  0.72790000  0.94700000  1.0 0.0480500537
C  C14  1  0.05780000  0.65760000  0.00590000  1.0 -0.0128101261
C  C15  1  0.07840000  0.66460000  0.07050000  1.0 0.0582356031
C  C16  1  0.07850000  0.58680000  0.13200000  1.0 0.0582356031
C  C17  1  0.18020000  0.51460000  0.30070000  1.0 0.0582356031
C  C18  1  0.12340000  0.51750000  0.24460000  1.0 0.1031663585
C  C19  1  0.08320000  0.44530000  0.24540000  1.0 -0.2202973369
C  C20  1  0.04190000  0.44200000  0.18730000  1.0 0.0480500537
C  C21  1  0.04750000  0.51340000  0.12780000  1.0 -0.0128101261
C  C22  1  0.02050000  0.50660000  0.06320000  1.0 -0.0128101261
C  C23  1  0.02880000  0.57640000  0.00420000  1.0 -0.0128101261
C  C24  1  0.00700000  0.57140000  0.93940000  1.0 -0.0128101261
C  C25  1  0.02050000  0.64310000  0.87710000  1.0 -0.0191086426
C  C26  1  0.04910000  0.71770000  0.87790000  1.0 0.0480500537
C  C27  1  0.06710000  0.78250000  0.81610000  1.0 -0.2103006095
C  C28  1  0.05360000  0.77450000  0.75080000  1.0 0.1299901527
C  C29  1  0.01780000  0.70200000  0.75010000  1.0 -0.2291204017
C  C30  1  0.99920000  0.63660000  0.81060000  1.0 0.0582356031
C  C31  1  0.08280000  0.84000000  0.68180000  1.0 -0.0983405877
C  C32  1  0.01950000  0.91060000  0.66720000  1.0 0.161036374
C  C33  1  0.17400000  0.82930000  0.63370000  1.0 0.161036374
C  C34  1  0.78290000  0.21080000  0.59220000  1.0 0.1708346028
C  C35  1  0.67520000  0.20340000  0.59610000  1.0 -0.4610410105
C  C36  1  0.85080000  0.23580000  0.52830000  1.0 -0.2898585231
C  C37  1  0.95030000  0.23880000  0.52470000  1.0 0.2153863776
C  C38  1  0.98440000  0.21890000  0.58960000  1.0 -0.2790135514
C  C39  1  0.02550000  0.26780000  0.45440000  1.0 -0.4690926669
C  C40  1  0.91390000  0.19290000  0.65600000  1.0 0.1484225896
C  C41  1  0.95740000  0.16720000  0.72390000  1.0 -0.4422285091
C  C42  1  0.60830000  0.48960000  0.87670000  1.0 0.1708346028
C  C43  1  0.62560000  0.42510000  0.93580000  1.0 -0.0883704527
C  C44  1  0.14390000  0.95750000  0.55260000  1.0 0.2106579486
C  C45  1  0.17020000  0.02340000  0.48120000  1.0 -0.4513763841
C  C46  1  0.24620000  0.75020000  0.64770000  1.0 -0.4422285091
C  C47  1  0.64750000  0.56650000  0.86620000  1.0 -0.2898585231
C  C48  1  0.70000000  0.58450000  0.90980000  1.0 0.2106579486
C  C49  1  0.73880000  0.66880000  0.89600000  1.0 -0.4799279999
C  C50  1  0.70740000  0.51950000  0.96960000  1.0 -0.2790135514
C  C51  1  0.66950000  0.44190000  0.98410000  1.0 0.1708346028
C  C52  1  0.68440000  0.37490000  0.05240000  1.0 -0.4610410105
C  C53  1  0.29580000  0.44630000  0.37400000  1.0 -0.0883704527
C  C54  1  0.29730000  0.52480000  0.39150000  1.0 0.0021517944
C  C55  1  0.24060000  0.59300000  0.36590000  1.0 -0.0883704527
C  C56  1  0.18250000  0.58740000  0.32030000  1.0 -0.1498102006
C  C57  1  0.05230000  0.97400000  0.59900000  1.0 -0.2704166185
C  C58  1  0.11690000  0.89690000  0.02720000  1.0 -0.0883704527
C  C59  1  0.92180000  0.93110000  0.71580000  1.0 -0.4690926669
C  C60  1  0.37380000  0.52780000  0.43780000  1.0 0.5643977988
C  C61  1  0.20650000  0.88730000  0.57010000  1.0 -0.2704166185
C  C62  1  0.55290000  0.47920000  0.82470000  1.0 -0.4610410105
C  C63  1  0.81780000  0.18630000  0.65810000  1.0 -0.0883704527
C  C64  1  0.74240000  0.15170000  0.72750000  1.0 0.1218450117
C  C65  1  0.59500000  0.33880000  0.94630000  1.0 0.1218450117
C  C66  1  0.23430000  0.44690000  0.32900000  1.0 -0.1403711718
C  C67  1  0.71030000  0.19610000  0.78210000  1.0 -0.2202973369
C  C68  1  0.64580000  0.16450000  0.84780000  1.0 0.0582356031
C  C69  1  0.60690000  0.20810000  0.90650000  1.0 0.0582356031
C  C70  1  0.54750000  0.17010000  0.97280000  1.0 -0.0128101261
C  C71  1  0.52640000  0.08370000  0.98760000  1.0 -0.0128101261
C  C72  1  0.55450000  0.04000000  0.92990000  1.0 0.0021517944
C  C73  1  0.62010000  0.08080000  0.86140000  1.0 -0.0191086426
C  C74  1  0.64560000  0.03690000  0.80810000  1.0 0.0376849193
C  C75  1  0.61060000  0.95680000  0.81760000  1.0 0.0480500537
C  C76  1  0.70480000  0.07470000  0.74200000  1.0 -0.2103006095
C  C77  1  0.62080000  0.91710000  0.76170000  1.0 -0.2202973369
C  C78  1  0.55990000  0.91330000  0.88790000  1.0 -0.0191086426
C  C79  1  0.53260000  0.83120000  0.90130000  1.0 0.0480500537
C  C80  1  0.54550000  0.79430000  0.84110000  1.0 -0.2103006095
C  C81  1  0.58570000  0.83930000  0.77310000  1.0 0.0935857091
C  C82  1  0.58820000  0.80690000  0.70870000  1.0 0.071664663
C  C83  1  0.53120000  0.95750000  0.94480000  1.0 -0.0191086426
C  C84  1  0.51210000  0.21650000  0.02640000  1.0 0.0480500537
C  C85  1  0.63210000  0.29050000  0.89400000  1.0 -0.2103006095
C  C86  1  0.65990000  0.82200000  0.64680000  1.0 -0.1572524738
C  C87  1  0.50890000  0.76510000  0.71230000  1.0 -0.1403711718
C  C88  1  0.65010000  0.79700000  0.58880000  1.0 -0.0983405877
C  C89  1  0.56450000  0.73280000  0.52580000  1.0 0.5508245993
C  C90  1  0.49980000  0.73850000  0.65110000  1.0 -0.0883704527
C  C91  1  0.57000000  0.75810000  0.58920000  1.0 -0.0417029839
C  C92  1  0.53400000  0.30050000  0.00930000  1.0 -0.2103006095
C  C93  1  0.83890000  0.96060000  0.94410000  1.0 0.2106579486
C  C94  1  0.81230000  0.88270000  0.92650000  1.0 -0.4690926669
C  C95  1  0.88020000  0.41020000  0.81250000  1.0 -0.2103006095
C  C96  1  0.77420000  0.99220000  0.99890000  1.0 -0.2790135514
C  C97  1  0.79520000  0.06420000  0.01430000  1.0 0.1798428688
C  C98  1  0.72490000  0.09680000  0.07490000  1.0 -0.4690926669
C  C99  1  0.94930000  0.06950000  0.92160000  1.0 0.161036374
C  C100  1  0.04660000  0.10540000  0.88040000  1.0 -0.4513763841
C  C101  1  0.92580000  0.99790000  0.90550000  1.0 -0.2898585231
C  C102  1  0.89920000  0.18640000  0.98190000  1.0 0.1299901527
C  C103  1  0.90020000  0.25940000  0.92640000  1.0 -0.2103006095
C  C104  1  0.91630000  0.19770000  0.04560000  1.0 -0.2003460558
C  C105  1  0.93610000  0.27210000  0.05300000  1.0 0.0480500537
C  C106  1  0.94220000  0.34240000  0.99410000  1.0 -0.0128101261
C  C107  1  0.92160000  0.33540000  0.92950000  1.0 0.0582356031
C  C108  1  0.92150000  0.41320000  0.86800000  1.0 0.0582356031
C  C109  1  0.81980000  0.48540000  0.69930000  1.0 0.0582356031
C  C110  1  0.87660000  0.48250000  0.75540000  1.0 0.1031663585
C  C111  1  0.91680000  0.55470000  0.75460000  1.0 -0.2202973369
C  C112  1  0.95810000  0.55800000  0.81270000  1.0 0.0480500537
C  C113  1  0.95250000  0.48660000  0.87220000  1.0 -0.0128101261
C  C114  1  0.97950000  0.49340000  0.93680000  1.0 -0.0128101261
C  C115  1  0.97120000  0.42360000  0.99580000  1.0 -0.0191086426
C  C116  1  0.99300000  0.42860000  0.06060000  1.0 -0.0128101261
C  C117  1  0.97950000  0.35690000  0.12290000  1.0 -0.0191086426
C  C118  1  0.95090000  0.28230000  0.12210000  1.0 0.0480500537
C  C119  1  0.93290000  0.21750000  0.18390000  1.0 -0.2103006095
C  C120  1  0.94640000  0.22550000  0.24920000  1.0 0.1299901527
C  C121  1  0.98220000  0.29800000  0.24990000  1.0 -0.2291204017
C  C122  1  0.00080000  0.36340000  0.18940000  1.0 0.0582356031
C  C123  1  0.91720000  0.16000000  0.31820000  1.0 -0.0983405877
C  C124  1  0.98050000  0.08940000  0.33280000  1.0 0.161036374
C  C125  1  0.82600000  0.17070000  0.36630000  1.0 0.161036374
C  C126  1  0.21710000  0.78920000  0.40780000  1.0 0.1708346028
C  C127  1  0.32480000  0.79660000  0.40390000  1.0 -0.4690926669
C  C128  1  0.14920000  0.76420000  0.47170000  1.0 -0.2898585231
C  C129  1  0.04970000  0.76120000  0.47530000  1.0 0.2153863776
C  C130  1  0.01560000  0.78110000  0.41040000  1.0 -0.2790135514
C  C131  1  0.97450000  0.73220000  0.54560000  1.0 -0.4690926669
C  C132  1  0.08610000  0.80710000  0.34400000  1.0 0.1484225896
C  C133  1  0.04260000  0.83280000  0.27610000  1.0 -0.4422285091
C  C134  1  0.39170000  0.51040000  0.12330000  1.0 0.1708346028
C  C135  1  0.37440000  0.57490000  0.06420000  1.0 -0.0883704527
C  C136  1  0.85610000  0.04250000  0.44740000  1.0 0.2106579486
C  C137  1  0.82980000  0.97660000  0.51880000  1.0 -0.4513763841
C  C138  1  0.75380000  0.24980000  0.35230000  1.0 -0.4422285091
C  C139  1  0.35250000  0.43350000  0.13380000  1.0 -0.2898585231
C  C140  1  0.30000000  0.41550000  0.09020000  1.0 0.2106579486
C  C141  1  0.26120000  0.33120000  0.10400000  1.0 -0.4799279999
C  C142  1  0.29260000  0.48050000  0.03040000  1.0 -0.2704166185
C  C143  1  0.33050000  0.55810000  0.01590000  1.0 0.1708346028
C  C144  1  0.31560000  0.62510000  0.94760000  1.0 -0.4610410105
C  C145  1  0.70420000  0.55370000  0.62600000  1.0 -0.0883704527
C  C146  1  0.70270000  0.47520000  0.60850000  1.0 0.0021517944
C  C147  1  0.75940000  0.40700000  0.63410000  1.0 -0.0883704527
C  C148  1  0.81750000  0.41260000  0.67970000  1.0 -0.1498102006
C  C149  1  0.94770000  0.02600000  0.40100000  1.0 -0.2704166185
C  C150  1  0.88310000  0.10310000  0.97280000  1.0 -0.0883704527
C  C151  1  0.07820000  0.06890000  0.28420000  1.0 -0.4690926669
C  C152  1  0.62620000  0.47220000  0.56220000  1.0 0.5643977988
C  C153  1  0.79350000  0.11270000  0.42990000  1.0 -0.2704166185
C  C154  1  0.44710000  0.52080000  0.17530000  1.0 -0.4610410105
C  C155  1  0.18220000  0.81370000  0.34190000  1.0 -0.0883704527
C  C156  1  0.25760000  0.84830000  0.27250000  1.0 0.1299901527
C  C157  1  0.40500000  0.66120000  0.05370000  1.0 0.1218450117
C  C158  1  0.76570000  0.55310000  0.67100000  1.0 -0.1403711718
C  C159  1  0.28970000  0.80390000  0.21790000  1.0 -0.2202973369
C  C160  1  0.35420000  0.83550000  0.15220000  1.0 0.0582356031
C  C161  1  0.39310000  0.79190000  0.09350000  1.0 0.0582356031
C  C162  1  0.45250000  0.82990000  0.02720000  1.0 -0.0128101261
C  C163  1  0.47360000  0.91630000  0.01240000  1.0 -0.0128101261
C  C164  1  0.44550000  0.96000000  0.07010000  1.0 0.0021517944
C  C165  1  0.37990000  0.91920000  0.13860000  1.0 -0.0191086426
C  C166  1  0.35440000  0.96310000  0.19190000  1.0 0.0376849193
C  C167  1  0.38940000  0.04320000  0.18240000  1.0 0.0480500537
C  C168  1  0.29520000  0.92530000  0.25800000  1.0 -0.2103006095
C  C169  1  0.37920000  0.08290000  0.23830000  1.0 -0.2202973369
C  C170  1  0.44010000  0.08670000  0.11210000  1.0 -0.0191086426
C  C171  1  0.46740000  0.16880000  0.09870000  1.0 0.0480500537
C  C172  1  0.45450000  0.20570000  0.15890000  1.0 -0.2103006095
C  C173  1  0.41430000  0.16070000  0.22690000  1.0 0.0935857091
C  C174  1  0.41180000  0.19310000  0.29130000  1.0 0.071664663
C  C175  1  0.46880000  0.04250000  0.05520000  1.0 -0.0191086426
C  C176  1  0.48790000  0.78350000  0.97360000  1.0 0.0480500537
C  C177  1  0.36790000  0.70950000  0.10600000  1.0 -0.2103006095
C  C178  1  0.34010000  0.17800000  0.35320000  1.0 -0.1572524738
C  C179  1  0.49110000  0.23490000  0.28770000  1.0 -0.1403711718
C  C180  1  0.34990000  0.20300000  0.41120000  1.0 -0.0983405877
C  C181  1  0.43550000  0.26720000  0.47420000  1.0 0.5508245993
C  C182  1  0.50020000  0.26150000  0.34890000  1.0 -0.0846953746
C  C183  1  0.43000000  0.24190000  0.41080000  1.0 -0.0417029839
C  C184  1  0.46600000  0.69950000  0.99070000  1.0 -0.2103006095
O  O1  1  0.37230000  0.59350000  0.45030000  1.0 -0.4886316638
O  O2  1  0.47770000  0.70990000  0.52940000  1.0 -0.5709522497
O  O3  1  0.41560000  0.46310000  0.46370000  1.0 -0.518626852
O  O4  1  0.63680000  0.74140000  0.46890000  1.0 -0.5118037295
O  O5  1  0.35880000  0.56090000  0.60120000  1.0 -0.2103006095
O  O6  1  0.57810000  0.64150000  0.40960000  1.0 -0.2003460558
O  O7  1  0.62770000  0.40650000  0.54970000  1.0 -0.4886316638
O  O8  1  0.52230000  0.29010000  0.47060000  1.0 -0.5709522497
O  O9  1  0.58440000  0.53690000  0.53630000  1.0 -0.518626852
O  O10  1  0.36320000  0.25860000  0.53110000  1.0 -0.5118037295
O  O11  1  0.64120000  0.43910000  0.39880000  1.0 -0.2202973369
O  O12  1  0.42190000  0.35850000  0.59040000  1.0 -0.2103006095
