# DDEC6 charges by PACMAN v1.1 (https://github.com/mtap-research/PACMAN-charge/)
data_ZOZKAC_FSR_pacman
_symmetry_space_group_name_H-M   'P 1'
_cell_length_a   13.06960000
_cell_length_b   13.06960000
_cell_length_c   11.28670000
_cell_angle_alpha   90.00000000
_cell_angle_beta   90.00000000
_cell_angle_gamma   90.00000000
_symmetry_Int_Tables_number   1
_chemical_formula_structural   Mn2H8C16O9
_chemical_formula_sum   'Mn8 H32 C64 O36'
_cell_volume   1927.93138690
_cell_formula_units_Z   4
loop_
 _symmetry_equiv_pos_site_id
 _symmetry_equiv_pos_as_xyz
  1  'x, y, z'
loop_
 _atom_site_type_symbol
 _atom_site_label
 _atom_site_symmetry_multiplicity
 _atom_site_fract_x
 _atom_site_fract_y
 _atom_site_fract_z
 _atom_site_occupancy
 _atom_site_charge
Mn  Mn1  1  0.98963000  0.74303000  0.10474000  1.0 1.0676456021
Mn  Mn2  1  0.01037000  0.25697000  0.60474000  1.0 1.0676456021
Mn  Mn3  1  0.74303000  0.01037000  0.35474000  1.0 1.0676456021
Mn  Mn4  1  0.25697000  0.98963000  0.85474000  1.0 1.0676456021
Mn  Mn5  1  0.21927000  0.74994000  0.95790000  1.0 0.9994391726
Mn  Mn6  1  0.78073000  0.25006000  0.45790000  1.0 0.9994391726
Mn  Mn7  1  0.74994000  0.78073000  0.20790000  1.0 0.9994391726
Mn  Mn8  1  0.25006000  0.21927000  0.70790000  1.0 0.9994391726
H  H1  1  0.99860000  0.98900000  0.71440000  1.0 0.119279879
H  H2  1  0.00140000  0.01100000  0.21440000  1.0 0.119279879
H  H3  1  0.98900000  0.00140000  0.96440000  1.0 0.119279879
H  H4  1  0.01100000  0.99860000  0.46440000  1.0 0.119279879
H  H5  1  0.70510000  0.92260000  0.64640000  1.0 0.1293136181
H  H6  1  0.29490000  0.07740000  0.14640000  1.0 0.1293136181
H  H7  1  0.92260000  0.29490000  0.89640000  1.0 0.1293136181
H  H8  1  0.07740000  0.70510000  0.39640000  1.0 0.1293136181
H  H9  1  0.72460000  0.76730000  0.74510000  1.0 0.1132599564
H  H10  1  0.27540000  0.23270000  0.24510000  1.0 0.1132599564
H  H11  1  0.76730000  0.27540000  0.99510000  1.0 0.1132599564
H  H12  1  0.23270000  0.72460000  0.49510000  1.0 0.1132599564
H  H13  1  0.87880000  0.72540000  0.83250000  1.0 0.1293136181
H  H14  1  0.12120000  0.27460000  0.33250000  1.0 0.1293136181
H  H15  1  0.72540000  0.12120000  0.08250000  1.0 0.1293136181
H  H16  1  0.27460000  0.87880000  0.58250000  1.0 0.1293136181
H  H17  1  0.87900000  0.49930000  0.85130000  1.0 0.1293136181
H  H18  1  0.12100000  0.50070000  0.35130000  1.0 0.1293136181
H  H19  1  0.49930000  0.12100000  0.10130000  1.0 0.1293136181
H  H20  1  0.50070000  0.87900000  0.60130000  1.0 0.1293136181
H  H21  1  0.62380000  0.34280000  0.76980000  1.0 0.1293136181
H  H22  1  0.37620000  0.65720000  0.26980000  1.0 0.1293136181
H  H23  1  0.34280000  0.37620000  0.01980000  1.0 0.1293136181
H  H24  1  0.65720000  0.62380000  0.51980000  1.0 0.1293136181
H  H25  1  0.54120000  0.41170000  0.93000000  1.0 0.119279879
H  H26  1  0.45880000  0.58830000  0.43000000  1.0 0.119279879
H  H27  1  0.41170000  0.45880000  0.18000000  1.0 0.119279879
H  H28  1  0.58830000  0.54120000  0.68000000  1.0 0.119279879
H  H29  1  0.62600000  0.52860000  0.05160000  1.0 0.119279879
H  H30  1  0.37400000  0.47140000  0.55160000  1.0 0.119279879
H  H31  1  0.52860000  0.37400000  0.30160000  1.0 0.119279879
H  H32  1  0.47140000  0.62600000  0.80160000  1.0 0.119279879
C  C1  1  0.05520000  0.82760000  0.83870000  1.0 0.5812290387
C  C2  1  0.94480000  0.17240000  0.33870000  1.0 0.5812290387
C  C3  1  0.82760000  0.94480000  0.08870000  1.0 0.5812290387
C  C4  1  0.17240000  0.05520000  0.58870000  1.0 0.5812290387
C  C5  1  0.84110000  0.07250000  0.60910000  1.0 0.6070467757
C  C6  1  0.15890000  0.92750000  0.10910000  1.0 0.6070467757
C  C7  1  0.07250000  0.15890000  0.85910000  1.0 0.6070467757
C  C8  1  0.92750000  0.84110000  0.35910000  1.0 0.6070467757
C  C9  1  0.81340000  0.60260000  0.04290000  1.0 0.5812290387
C  C10  1  0.18660000  0.39740000  0.54290000  1.0 0.5812290387
C  C11  1  0.60260000  0.18660000  0.29290000  1.0 0.5812290387
C  C12  1  0.39740000  0.81340000  0.79290000  1.0 0.5812290387
C  C13  1  0.81020000  0.36490000  0.68740000  1.0 0.5812290387
C  C14  1  0.18980000  0.63510000  0.18740000  1.0 0.5812290387
C  C15  1  0.36490000  0.18980000  0.93740000  1.0 0.5812290387
C  C16  1  0.63510000  0.81020000  0.43740000  1.0 0.5812290387
C  C17  1  0.95460000  0.85190000  0.78160000  1.0 -0.0227864346
C  C18  1  0.04540000  0.14810000  0.28160000  1.0 -0.0227864346
C  C19  1  0.85190000  0.04540000  0.03160000  1.0 -0.0227864346
C  C20  1  0.14810000  0.95460000  0.53160000  1.0 -0.0227864346
C  C21  1  0.94330000  0.94460000  0.72080000  1.0 -0.1202809688
C  C22  1  0.05670000  0.05540000  0.22080000  1.0 -0.1202809688
C  C23  1  0.94460000  0.05670000  0.97080000  1.0 -0.1202809688
C  C24  1  0.05540000  0.94330000  0.47080000  1.0 -0.1202809688
C  C25  1  0.84920000  0.97120000  0.66960000  1.0 -0.0256959832
C  C26  1  0.15080000  0.02880000  0.16960000  1.0 -0.0256959832
C  C27  1  0.97120000  0.15080000  0.91960000  1.0 -0.0256959832
C  C28  1  0.02880000  0.84920000  0.41960000  1.0 -0.0256959832
C  C29  1  0.76800000  0.90540000  0.67960000  1.0 -0.0890383272
C  C30  1  0.23200000  0.09460000  0.17960000  1.0 -0.0890383272
C  C31  1  0.90540000  0.23200000  0.92960000  1.0 -0.0890383272
C  C32  1  0.09460000  0.76800000  0.42960000  1.0 -0.0890383272
C  C33  1  0.77950000  0.81220000  0.73980000  1.0 -0.0729493497
C  C34  1  0.22050000  0.18780000  0.23980000  1.0 -0.0729493497
C  C35  1  0.81220000  0.22050000  0.98980000  1.0 -0.0729493497
C  C36  1  0.18780000  0.77950000  0.48980000  1.0 -0.0729493497
C  C37  1  0.87220000  0.78660000  0.79130000  1.0 -0.0806932671
C  C38  1  0.12780000  0.21340000  0.29130000  1.0 -0.0806932671
C  C39  1  0.78660000  0.12780000  0.04130000  1.0 -0.0806932671
C  C40  1  0.21340000  0.87220000  0.54130000  1.0 -0.0806932671
C  C41  1  0.76080000  0.52520000  0.96330000  1.0 -0.0392253192
C  C42  1  0.23920000  0.47480000  0.46330000  1.0 -0.0392253192
C  C43  1  0.52520000  0.23920000  0.21330000  1.0 -0.0392253192
C  C44  1  0.47480000  0.76080000  0.71330000  1.0 -0.0392253192
C  C45  1  0.81110000  0.48250000  0.86660000  1.0 -0.1202809688
C  C46  1  0.18890000  0.51750000  0.36660000  1.0 -0.1202809688
C  C47  1  0.48250000  0.18890000  0.11660000  1.0 -0.1202809688
C  C48  1  0.51750000  0.81110000  0.61660000  1.0 -0.1202809688
C  C49  1  0.75900000  0.41440000  0.79250000  1.0 -0.0392253192
C  C50  1  0.24100000  0.58560000  0.29250000  1.0 -0.0392253192
C  C51  1  0.41440000  0.24100000  0.04250000  1.0 -0.0392253192
C  C52  1  0.58560000  0.75900000  0.54250000  1.0 -0.0392253192
C  C53  1  0.65820000  0.38880000  0.81840000  1.0 -0.110258322
C  C54  1  0.34180000  0.61120000  0.31840000  1.0 -0.110258322
C  C55  1  0.38880000  0.34180000  0.06840000  1.0 -0.110258322
C  C56  1  0.61120000  0.65820000  0.56840000  1.0 -0.110258322
C  C57  1  0.60860000  0.42990000  0.91390000  1.0 -0.110258322
C  C58  1  0.39140000  0.57010000  0.41390000  1.0 -0.110258322
C  C59  1  0.42990000  0.39140000  0.16390000  1.0 -0.110258322
C  C60  1  0.57010000  0.60860000  0.66390000  1.0 -0.110258322
C  C61  1  0.65960000  0.49960000  0.98720000  1.0 -0.0985654758
C  C62  1  0.34040000  0.50040000  0.48720000  1.0 -0.0985654758
C  C63  1  0.49960000  0.34040000  0.23720000  1.0 -0.0985654758
C  C64  1  0.50040000  0.65960000  0.73720000  1.0 -0.0985654758
O  O1  1  0.05650000  0.76010000  0.91930000  1.0 -0.5374001934
O  O2  1  0.94350000  0.23990000  0.41930000  1.0 -0.5374001934
O  O3  1  0.76010000  0.94350000  0.16930000  1.0 -0.5374001934
O  O4  1  0.23990000  0.05650000  0.66930000  1.0 -0.5374001934
O  O5  1  0.13540000  0.87240000  0.80730000  1.0 -0.5653488411
O  O6  1  0.86460000  0.12760000  0.30730000  1.0 -0.5653488411
O  O7  1  0.87240000  0.86460000  0.05730000  1.0 -0.5653488411
O  O8  1  0.12760000  0.13540000  0.55730000  1.0 -0.5653488411
O  O9  1  0.77210000  0.08750000  0.53090000  1.0 -0.5795457287
O  O10  1  0.22790000  0.91250000  0.03090000  1.0 -0.5795457287
O  O11  1  0.08750000  0.22790000  0.78090000  1.0 -0.5795457287
O  O12  1  0.91250000  0.77210000  0.28090000  1.0 -0.5795457287
O  O13  1  0.90370000  0.14030000  0.63840000  1.0 -0.5606459452
O  O14  1  0.09630000  0.85970000  0.13840000  1.0 -0.5606459452
O  O15  1  0.14030000  0.09630000  0.88840000  1.0 -0.5606459452
O  O16  1  0.85970000  0.90370000  0.38840000  1.0 -0.5606459452
O  O17  1  0.75920000  0.64300000  0.12220000  1.0 -0.5374001934
O  O18  1  0.24080000  0.35700000  0.62220000  1.0 -0.5374001934
O  O19  1  0.64300000  0.24080000  0.37220000  1.0 -0.5374001934
O  O20  1  0.35700000  0.75920000  0.87220000  1.0 -0.5374001934
O  O21  1  0.90490000  0.62280000  0.02560000  1.0 -0.5303040517
O  O22  1  0.09510000  0.37720000  0.52560000  1.0 -0.5303040517
O  O23  1  0.62280000  0.09510000  0.27560000  1.0 -0.5303040517
O  O24  1  0.37720000  0.90490000  0.77560000  1.0 -0.5303040517
O  O25  1  0.75000000  0.32180000  0.61610000  1.0 -0.5374001934
O  O26  1  0.25000000  0.67820000  0.11610000  1.0 -0.5374001934
O  O27  1  0.32180000  0.25000000  0.86610000  1.0 -0.5374001934
O  O28  1  0.67820000  0.75000000  0.36610000  1.0 -0.5374001934
O  O29  1  0.90520000  0.36760000  0.67880000  1.0 -0.5303040517
O  O30  1  0.09480000  0.63240000  0.17880000  1.0 -0.5303040517
O  O31  1  0.36760000  0.09480000  0.92880000  1.0 -0.5303040517
O  O32  1  0.63240000  0.90520000  0.42880000  1.0 -0.5303040517
O  O33  1  0.20290000  0.60140000  0.86880000  1.0 -0.0985654758
O  O34  1  0.79710000  0.39860000  0.36880000  1.0 -0.0985654758
O  O35  1  0.60140000  0.79710000  0.11880000  1.0 -0.0985654758
O  O36  1  0.39860000  0.20290000  0.61880000  1.0 -0.0985654758
