# DDEC6 charges by PACMAN v1.1 (https://github.com/mtap-research/PACMAN-charge/)
data_ZUBFIN_FSR_pacman
_symmetry_space_group_name_H-M   'P 1'
_cell_length_a   37.81220000
_cell_length_b   32.45720000
_cell_length_c   21.01520000
_cell_angle_alpha   87.25420000
_cell_angle_beta   59.02540000
_cell_angle_gamma   33.72050000
_symmetry_Int_Tables_number   1
_chemical_formula_structural   Zn3H32C54(NO)12
_chemical_formula_sum   'Zn12 H128 C216 N48 O48'
_cell_volume   7386.83085415
_cell_formula_units_Z   4
loop_
 _symmetry_equiv_pos_site_id
 _symmetry_equiv_pos_as_xyz
  1  'x, y, z'
loop_
 _atom_site_type_symbol
 _atom_site_label
 _atom_site_symmetry_multiplicity
 _atom_site_fract_x
 _atom_site_fract_y
 _atom_site_fract_z
 _atom_site_occupancy
 _atom_site_charge
Zn  Zn1  1  0.24005000  0.07285000  0.08999000  1.0 0.7728793047
Zn  Zn2  1  0.07285000  0.24005000  0.59711000  1.0 0.7728793047
Zn  Zn3  1  0.59711000  0.08999000  0.07285000  1.0 0.7728793047
Zn  Zn4  1  0.08999000  0.59711000  0.24005000  1.0 0.7728793047
Zn  Zn5  1  0.00995000  0.17715000  0.16001000  1.0 0.7728793047
Zn  Zn6  1  0.17715000  0.00995000  0.65289000  1.0 0.7728793047
Zn  Zn7  1  0.65289000  0.16001000  0.17715000  1.0 0.7728793047
Zn  Zn8  1  0.16001000  0.65289000  0.00995000  1.0 0.7728793047
Zn  Zn9  1  0.77840000  0.77840000  0.22160000  1.0 0.7412404887
Zn  Zn10  1  0.22160000  0.22160000  0.77840000  1.0 0.7412404887
Zn  Zn11  1  0.47160000  0.47160000  0.02840000  1.0 0.7412404887
Zn  Zn12  1  0.02840000  0.02840000  0.47160000  1.0 0.7412404887
H  H1  1  0.39010000  0.34430000  0.55550000  1.0 0.1186949849
H  H2  1  0.34430000  0.39010000  0.71010000  1.0 0.1186949849
H  H3  1  0.71010000  0.55550000  0.34430000  1.0 0.1186949849
H  H4  1  0.55550000  0.71010000  0.39010000  1.0 0.1186949849
H  H5  1  0.85990000  0.90570000  0.69450000  1.0 0.1186949849
H  H6  1  0.90570000  0.85990000  0.53990000  1.0 0.1186949849
H  H7  1  0.53990000  0.69450000  0.90570000  1.0 0.1186949849
H  H8  1  0.69450000  0.53990000  0.85990000  1.0 0.1186949849
H  H9  1  0.42220000  0.19500000  0.59360000  1.0 0.1061539063
H  H10  1  0.19500000  0.42220000  0.78920000  1.0 0.1061539063
H  H11  1  0.78920000  0.59360000  0.19500000  1.0 0.1061539063
H  H12  1  0.59360000  0.78920000  0.42220000  1.0 0.1061539063
H  H13  1  0.82780000  0.05500000  0.65640000  1.0 0.1061539063
H  H14  1  0.05500000  0.82780000  0.46080000  1.0 0.1061539063
H  H15  1  0.46080000  0.65640000  0.05500000  1.0 0.1061539063
H  H16  1  0.65640000  0.46080000  0.82780000  1.0 0.1061539063
H  H17  1  0.65590000  0.02130000  0.25710000  1.0 0.1186949849
H  H18  1  0.02130000  0.65590000  0.06570000  1.0 0.1186949849
H  H19  1  0.06570000  0.25710000  0.02130000  1.0 0.1186949849
H  H20  1  0.25710000  0.06570000  0.65590000  1.0 0.1186949849
H  H21  1  0.59410000  0.22870000  0.99290000  1.0 0.1186949849
H  H22  1  0.22870000  0.59410000  0.18430000  1.0 0.1186949849
H  H23  1  0.18430000  0.99290000  0.22870000  1.0 0.1186949849
H  H24  1  0.99290000  0.18430000  0.59410000  1.0 0.1186949849
H  H25  1  0.96560000  0.57400000  0.16600000  1.0 0.1283347271
H  H26  1  0.57400000  0.96560000  0.29440000  1.0 0.1283347271
H  H27  1  0.29440000  0.16600000  0.57400000  1.0 0.1283347271
H  H28  1  0.16600000  0.29440000  0.96560000  1.0 0.1283347271
H  H29  1  0.28440000  0.67600000  0.08400000  1.0 0.1283347271
H  H30  1  0.67600000  0.28440000  0.95560000  1.0 0.1283347271
H  H31  1  0.95560000  0.08400000  0.67600000  1.0 0.1283347271
H  H32  1  0.08400000  0.95560000  0.28440000  1.0 0.1283347271
H  H33  1  0.95960000  0.51440000  0.23680000  1.0 0.1393206452
H  H34  1  0.51440000  0.95960000  0.28920000  1.0 0.1393206452
H  H35  1  0.28920000  0.23680000  0.51440000  1.0 0.1393206452
H  H36  1  0.23680000  0.28920000  0.95960000  1.0 0.1393206452
H  H37  1  0.29040000  0.73560000  0.01320000  1.0 0.1393206452
H  H38  1  0.73560000  0.29040000  0.96080000  1.0 0.1393206452
H  H39  1  0.96080000  0.01320000  0.73560000  1.0 0.1393206452
H  H40  1  0.01320000  0.96080000  0.29040000  1.0 0.1393206452
H  H41  1  0.64140000  0.82900000  0.41460000  1.0 0.1283347271
H  H42  1  0.82900000  0.64140000  0.11500000  1.0 0.1283347271
H  H43  1  0.11500000  0.41460000  0.82900000  1.0 0.1283347271
H  H44  1  0.41460000  0.11500000  0.64140000  1.0 0.1283347271
H  H45  1  0.60860000  0.42100000  0.83540000  1.0 0.1283347271
H  H46  1  0.42100000  0.60860000  0.13500000  1.0 0.1283347271
H  H47  1  0.13500000  0.83540000  0.42100000  1.0 0.1283347271
H  H48  1  0.83540000  0.13500000  0.60860000  1.0 0.1283347271
H  H49  1  0.90190000  0.49610000  0.26990000  1.0 0.148931282
H  H50  1  0.49610000  0.90190000  0.33210000  1.0 0.148931282
H  H51  1  0.33210000  0.26990000  0.49610000  1.0 0.148931282
H  H52  1  0.26990000  0.33210000  0.90190000  1.0 0.148931282
H  H53  1  0.34810000  0.75390000  0.98010000  1.0 0.148931282
H  H54  1  0.75390000  0.34810000  0.91790000  1.0 0.148931282
H  H55  1  0.91790000  0.98010000  0.75390000  1.0 0.148931282
H  H56  1  0.98010000  0.91790000  0.34810000  1.0 0.148931282
H  H57  1  0.64950000  0.66750000  0.59050000  1.0 0.1393206452
H  H58  1  0.66750000  0.64950000  0.09250000  1.0 0.1393206452
H  H59  1  0.09250000  0.59050000  0.66750000  1.0 0.1393206452
H  H60  1  0.59050000  0.09250000  0.64950000  1.0 0.1393206452
H  H61  1  0.60050000  0.58250000  0.65950000  1.0 0.1393206452
H  H62  1  0.58250000  0.60050000  0.15750000  1.0 0.1393206452
H  H63  1  0.15750000  0.65950000  0.58250000  1.0 0.1393206452
H  H64  1  0.65950000  0.15750000  0.60050000  1.0 0.1393206452
H  H65  1  0.56270000  0.86450000  0.59250000  1.0 0.148931282
H  H66  1  0.86450000  0.56270000  0.98030000  1.0 0.148931282
H  H67  1  0.98030000  0.59250000  0.86450000  1.0 0.148931282
H  H68  1  0.59250000  0.98030000  0.56270000  1.0 0.148931282
H  H69  1  0.68730000  0.38550000  0.65750000  1.0 0.148931282
H  H70  1  0.38550000  0.68730000  0.26970000  1.0 0.148931282
H  H71  1  0.26970000  0.65750000  0.38550000  1.0 0.148931282
H  H72  1  0.65750000  0.26970000  0.68730000  1.0 0.148931282
H  H73  1  0.35150000  0.03610000  0.78030000  1.0 0.1393206452
H  H74  1  0.03610000  0.35150000  0.83210000  1.0 0.1393206452
H  H75  1  0.83210000  0.78030000  0.03610000  1.0 0.1393206452
H  H76  1  0.78030000  0.83210000  0.35150000  1.0 0.1393206452
H  H77  1  0.89850000  0.21390000  0.46970000  1.0 0.1393206452
H  H78  1  0.21390000  0.89850000  0.41790000  1.0 0.1393206452
H  H79  1  0.41790000  0.46970000  0.21390000  1.0 0.1393206452
H  H80  1  0.46970000  0.41790000  0.89850000  1.0 0.1393206452
H  H81  1  0.18950000  0.16970000  0.99750000  1.0 0.1283347271
H  H82  1  0.16970000  0.18950000  0.64330000  1.0 0.1283347271
H  H83  1  0.64330000  0.99750000  0.16970000  1.0 0.1283347271
H  H84  1  0.99750000  0.64330000  0.18950000  1.0 0.1283347271
H  H85  1  0.06050000  0.08030000  0.25250000  1.0 0.1283347271
H  H86  1  0.08030000  0.06050000  0.60670000  1.0 0.1283347271
H  H87  1  0.60670000  0.25250000  0.08030000  1.0 0.1283347271
H  H88  1  0.25250000  0.60670000  0.06050000  1.0 0.1283347271
H  H89  1  0.50210000  0.82470000  0.79510000  1.0 0.1186949849
H  H90  1  0.82470000  0.50210000  0.87810000  1.0 0.1186949849
H  H91  1  0.87810000  0.79510000  0.82470000  1.0 0.1186949849
H  H92  1  0.79510000  0.87810000  0.50210000  1.0 0.1186949849
H  H93  1  0.74790000  0.42530000  0.45490000  1.0 0.1186949849
H  H94  1  0.42530000  0.74790000  0.37190000  1.0 0.1186949849
H  H95  1  0.37190000  0.45490000  0.42530000  1.0 0.1186949849
H  H96  1  0.45490000  0.37190000  0.74790000  1.0 0.1186949849
H  H97  1  0.78070000  0.48490000  0.44210000  1.0 0.1283347271
H  H98  1  0.48490000  0.78070000  0.29230000  1.0 0.1283347271
H  H99  1  0.29230000  0.44210000  0.48490000  1.0 0.1283347271
H  H100  1  0.44210000  0.29230000  0.78070000  1.0 0.1283347271
H  H101  1  0.46930000  0.76510000  0.80790000  1.0 0.1283347271
H  H102  1  0.76510000  0.46930000  0.95770000  1.0 0.1283347271
H  H103  1  0.95770000  0.80790000  0.76510000  1.0 0.1283347271
H  H104  1  0.80790000  0.95770000  0.46930000  1.0 0.1283347271
H  H105  1  0.03760000  0.33220000  0.22600000  1.0 0.1186949849
H  H106  1  0.33220000  0.03760000  0.40420000  1.0 0.1186949849
H  H107  1  0.40420000  0.22600000  0.33220000  1.0 0.1186949849
H  H108  1  0.22600000  0.40420000  0.03760000  1.0 0.1186949849
H  H109  1  0.21240000  0.91780000  0.02400000  1.0 0.1186949849
H  H110  1  0.91780000  0.21240000  0.84580000  1.0 0.1186949849
H  H111  1  0.84580000  0.02400000  0.91780000  1.0 0.1186949849
H  H112  1  0.02400000  0.84580000  0.21240000  1.0 0.1186949849
H  H113  1  0.98440000  0.26140000  0.29120000  1.0 0.1283347271
H  H114  1  0.26140000  0.98440000  0.46300000  1.0 0.1283347271
H  H115  1  0.46300000  0.29120000  0.26140000  1.0 0.1283347271
H  H116  1  0.29120000  0.46300000  0.98440000  1.0 0.1283347271
H  H117  1  0.26560000  0.98860000  0.95880000  1.0 0.1283347271
H  H118  1  0.98860000  0.26560000  0.78700000  1.0 0.1283347271
H  H119  1  0.78700000  0.95880000  0.98860000  1.0 0.1283347271
H  H120  1  0.95880000  0.78700000  0.26560000  1.0 0.1283347271
H  H121  1  0.26580000  0.20340000  0.14380000  1.0 0.1186949849
H  H122  1  0.20340000  0.26580000  0.38700000  1.0 0.1186949849
H  H123  1  0.38700000  0.14380000  0.20340000  1.0 0.1186949849
H  H124  1  0.14380000  0.38700000  0.26580000  1.0 0.1186949849
H  H125  1  0.98420000  0.04660000  0.10620000  1.0 0.1186949849
H  H126  1  0.04660000  0.98420000  0.86300000  1.0 0.1186949849
H  H127  1  0.86300000  0.10620000  0.04660000  1.0 0.1186949849
H  H128  1  0.10620000  0.86300000  0.98420000  1.0 0.1186949849
C  C1  1  0.56820000  0.18268000  0.31892000  1.0 0.5337101392
C  C2  1  0.18268000  0.56820000  0.93020000  1.0 0.5337101392
C  C3  1  0.93020000  0.31892000  0.18268000  1.0 0.5337101392
C  C4  1  0.31892000  0.93020000  0.56820000  1.0 0.5337101392
C  C5  1  0.68180000  0.06732000  0.93108000  1.0 0.5337101392
C  C6  1  0.06732000  0.68180000  0.31980000  1.0 0.5337101392
C  C7  1  0.31980000  0.93108000  0.06732000  1.0 0.5337101392
C  C8  1  0.93108000  0.31980000  0.68180000  1.0 0.5337101392
C  C9  1  0.52762000  0.18362000  0.39578000  1.0 -0.0069807447
C  C10  1  0.18362000  0.52762000  0.89298000  1.0 -0.0069807447
C  C11  1  0.89298000  0.39578000  0.18362000  1.0 -0.0069807447
C  C12  1  0.39578000  0.89298000  0.52762000  1.0 -0.0069807447
C  C13  1  0.72238000  0.06638000  0.85422000  1.0 -0.0069807447
C  C14  1  0.06638000  0.72238000  0.35702000  1.0 -0.0069807447
C  C15  1  0.35702000  0.85422000  0.06638000  1.0 -0.0069807447
C  C16  1  0.85422000  0.35702000  0.72238000  1.0 -0.0069807447
C  C17  1  0.43015000  0.28053000  0.52027000  1.0 -0.165915975
C  C18  1  0.28053000  0.43015000  0.76905000  1.0 -0.165915975
C  C19  1  0.76905000  0.52027000  0.28053000  1.0 -0.165915975
C  C20  1  0.52027000  0.76905000  0.43015000  1.0 -0.165915975
C  C21  1  0.81985000  0.96947000  0.72973000  1.0 -0.165915975
C  C22  1  0.96947000  0.81985000  0.48095000  1.0 -0.165915975
C  C23  1  0.48095000  0.72973000  0.96947000  1.0 -0.165915975
C  C24  1  0.72973000  0.48095000  0.81985000  1.0 -0.165915975
C  C25  1  0.38961000  0.28593000  0.59547000  1.0 0.0688741862
C  C26  1  0.28593000  0.38961000  0.72899000  1.0 0.0688741862
C  C27  1  0.72899000  0.59547000  0.28593000  1.0 0.0688741862
C  C28  1  0.59547000  0.72899000  0.38961000  1.0 0.0688741862
C  C29  1  0.86039000  0.96407000  0.65453000  1.0 0.0688741862
C  C30  1  0.96407000  0.86039000  0.52101000  1.0 0.0688741862
C  C31  1  0.52101000  0.65453000  0.96407000  1.0 0.0688741862
C  C32  1  0.65453000  0.52101000  0.86039000  1.0 0.0688741862
C  C33  1  0.44910000  0.19204000  0.54336000  1.0 -0.1779451516
C  C34  1  0.19204000  0.44910000  0.81550000  1.0 -0.1779451516
C  C35  1  0.81550000  0.54336000  0.19204000  1.0 -0.1779451516
C  C36  1  0.54336000  0.81550000  0.44910000  1.0 -0.1779451516
C  C37  1  0.80090000  0.05796000  0.70664000  1.0 -0.1779451516
C  C38  1  0.05796000  0.80090000  0.43450000  1.0 -0.1779451516
C  C39  1  0.43450000  0.70664000  0.05796000  1.0 -0.1779451516
C  C40  1  0.70664000  0.43450000  0.80090000  1.0 -0.1779451516
C  C41  1  0.54885000  0.09309000  0.41671000  1.0 -0.0179430336
C  C42  1  0.09309000  0.54885000  0.94135000  1.0 -0.0179430336
C  C43  1  0.94135000  0.41671000  0.09309000  1.0 -0.0179430336
C  C44  1  0.41671000  0.94135000  0.54885000  1.0 -0.0179430336
C  C45  1  0.70115000  0.15691000  0.83329000  1.0 -0.0179430336
C  C46  1  0.15691000  0.70115000  0.30865000  1.0 -0.0179430336
C  C47  1  0.30865000  0.83329000  0.15691000  1.0 -0.0179430336
C  C48  1  0.83329000  0.30865000  0.70115000  1.0 -0.0179430336
C  C49  1  0.58820000  0.08862000  0.34298000  1.0 -0.1320568053
C  C50  1  0.08862000  0.58820000  0.98020000  1.0 -0.1354370734
C  C51  1  0.98020000  0.34298000  0.08862000  1.0 -0.1354370734
C  C52  1  0.34298000  0.98020000  0.58820000  1.0 -0.1354370734
C  C53  1  0.66180000  0.16138000  0.90702000  1.0 -0.1354370734
C  C54  1  0.16138000  0.66180000  0.26980000  1.0 -0.1354370734
C  C55  1  0.26980000  0.90702000  0.16138000  1.0 -0.1354370734
C  C56  1  0.90702000  0.26980000  0.66180000  1.0 -0.1354370734
C  C57  1  0.61655000  0.98895000  0.36025000  1.0 0.5410469271
C  C58  1  0.98895000  0.61655000  0.03425000  1.0 0.5410469271
C  C59  1  0.03425000  0.36025000  0.98895000  1.0 0.5410469271
C  C60  1  0.36025000  0.03425000  0.61655000  1.0 0.5410469271
C  C61  1  0.63345000  0.26105000  0.88975000  1.0 0.5410469271
C  C62  1  0.26105000  0.63345000  0.21575000  1.0 0.5410469271
C  C63  1  0.21575000  0.88975000  0.26105000  1.0 0.5410469271
C  C64  1  0.88975000  0.21575000  0.63345000  1.0 0.5410469271
C  C65  1  0.89838000  0.61858000  0.22582000  1.0 -0.0179430336
C  C66  1  0.61858000  0.89838000  0.25722000  1.0 -0.0179430336
C  C67  1  0.25722000  0.22582000  0.61858000  1.0 -0.0179430336
C  C68  1  0.22582000  0.25722000  0.89838000  1.0 -0.0179430336
C  C69  1  0.35162000  0.63142000  0.02418000  1.0 -0.0179430336
C  C70  1  0.63142000  0.35162000  0.99278000  1.0 -0.0179430336
C  C71  1  0.99278000  0.02418000  0.63142000  1.0 -0.0179430336
C  C72  1  0.02418000  0.99278000  0.35162000  1.0 -0.0179430336
C  C73  1  0.89528000  0.58608000  0.26552000  1.0 -0.1180273961
C  C74  1  0.58608000  0.89528000  0.25312000  1.0 -0.1180273961
C  C75  1  0.25312000  0.26552000  0.58608000  1.0 -0.1180273961
C  C76  1  0.26552000  0.25312000  0.89528000  1.0 -0.1180273961
C  C77  1  0.35472000  0.66392000  0.98448000  1.0 -0.1180273961
C  C78  1  0.66392000  0.35472000  0.99688000  1.0 -0.1180273961
C  C79  1  0.99688000  0.98448000  0.66392000  1.0 -0.1180273961
C  C80  1  0.98448000  0.99688000  0.35472000  1.0 -0.1180273961
C  C81  1  0.72194000  0.75778000  0.36162000  1.0 0.0938754877
C  C82  1  0.75778000  0.72194000  0.15866000  1.0 0.0938754877
C  C83  1  0.15866000  0.36162000  0.75778000  1.0 0.0938754877
C  C84  1  0.36162000  0.15866000  0.72194000  1.0 0.0938754877
C  C85  1  0.52806000  0.49222000  0.88838000  1.0 0.0938754877
C  C86  1  0.49222000  0.52806000  0.09134000  1.0 0.0938754877
C  C87  1  0.09134000  0.88838000  0.49222000  1.0 0.0938754877
C  C88  1  0.88838000  0.09134000  0.52806000  1.0 0.0938754877
C  C89  1  0.73828000  0.68012000  0.42188000  1.0 0.212321482
C  C90  1  0.68012000  0.73828000  0.15972000  1.0 0.212321482
C  C91  1  0.15972000  0.42188000  0.68012000  1.0 0.212321482
C  C92  1  0.42188000  0.15972000  0.73828000  1.0 0.212321482
C  C93  1  0.51172000  0.56988000  0.82812000  1.0 0.212321482
C  C94  1  0.56988000  0.51172000  0.09028000  1.0 0.212321482
C  C95  1  0.09028000  0.82812000  0.56988000  1.0 0.212321482
C  C96  1  0.82812000  0.09028000  0.51172000  1.0 0.212321482
C  C97  1  0.82243000  0.56883000  0.35697000  1.0 -0.26644472
C  C98  1  0.56883000  0.82243000  0.25177000  1.0 -0.26644472
C  C99  1  0.25177000  0.35697000  0.56883000  1.0 -0.26644472
C  C100  1  0.35697000  0.25177000  0.82243000  1.0 -0.26644472
C  C101  1  0.42757000  0.68117000  0.89303000  1.0 -0.26644472
C  C102  1  0.68117000  0.42757000  0.99823000  1.0 -0.26644472
C  C103  1  0.99823000  0.89303000  0.68117000  1.0 -0.26644472
C  C104  1  0.89303000  0.99823000  0.42757000  1.0 -0.26644472
C  C105  1  0.78791000  0.56615000  0.42225000  1.0 0.212321482
C  C106  1  0.56615000  0.78791000  0.22369000  1.0 0.212321482
C  C107  1  0.22369000  0.42225000  0.56615000  1.0 0.212321482
C  C108  1  0.42225000  0.22369000  0.78791000  1.0 0.212321482
C  C109  1  0.46209000  0.68385000  0.82775000  1.0 0.212321482
C  C110  1  0.68385000  0.46209000  0.02631000  1.0 0.212321482
C  C111  1  0.02631000  0.82775000  0.68385000  1.0 0.212321482
C  C112  1  0.82775000  0.02631000  0.46209000  1.0 0.212321482
C  C113  1  0.67216000  0.67074000  0.54746000  1.0 -0.2827767984
C  C114  1  0.67074000  0.67216000  0.10964000  1.0 -0.2827767984
C  C115  1  0.10964000  0.54746000  0.67074000  1.0 -0.2827767984
C  C116  1  0.54746000  0.10964000  0.67216000  1.0 -0.2827767984
C  C117  1  0.57784000  0.57926000  0.70254000  1.0 -0.2827767984
C  C118  1  0.57926000  0.57784000  0.14036000  1.0 -0.2827767984
C  C119  1  0.14036000  0.70254000  0.57926000  1.0 -0.2850796409
C  C120  1  0.70254000  0.14036000  0.57784000  1.0 -0.2850796409
C  C121  1  0.58959000  0.78077000  0.60903000  1.0 0.217234718
C  C122  1  0.78077000  0.58959000  0.02061000  1.0 0.217234718
C  C123  1  0.02061000  0.60903000  0.78077000  1.0 0.217234718
C  C124  1  0.60903000  0.02061000  0.58959000  1.0 0.217234718
C  C125  1  0.66041000  0.46923000  0.64097000  1.0 0.217234718
C  C126  1  0.46923000  0.66041000  0.22939000  1.0 0.217234718
C  C127  1  0.22939000  0.64097000  0.46923000  1.0 0.217234718
C  C128  1  0.64097000  0.22939000  0.66041000  1.0 0.217234718
C  C129  1  0.62027000  0.78831000  0.54869000  1.0 -0.2602500465
C  C130  1  0.78831000  0.62027000  0.04273000  1.0 -0.2602500465
C  C131  1  0.04273000  0.54869000  0.78831000  1.0 -0.2602500465
C  C132  1  0.54869000  0.04273000  0.62027000  1.0 -0.2602500465
C  C133  1  0.62973000  0.46169000  0.70131000  1.0 -0.2602500465
C  C134  1  0.46169000  0.62973000  0.20727000  1.0 -0.2602500465
C  C135  1  0.20727000  0.70131000  0.46169000  1.0 -0.2602500465
C  C136  1  0.70131000  0.20727000  0.62973000  1.0 -0.2602500465
C  C137  1  0.36170000  0.01026000  0.80994000  1.0 -0.0825922318
C  C138  1  0.01026000  0.36170000  0.81810000  1.0 -0.0825922318
C  C139  1  0.81810000  0.80994000  0.01026000  1.0 -0.0825922318
C  C140  1  0.80994000  0.81810000  0.36170000  1.0 -0.0825922318
C  C141  1  0.88830000  0.23974000  0.44006000  1.0 -0.0825922318
C  C142  1  0.23974000  0.88830000  0.43190000  1.0 -0.0825922318
C  C143  1  0.43190000  0.44006000  0.23974000  1.0 -0.0825922318
C  C144  1  0.44006000  0.43190000  0.88830000  1.0 -0.0825922318
C  C145  1  0.27399000  0.08241000  0.92839000  1.0 -0.0251768582
C  C146  1  0.08241000  0.27399000  0.71521000  1.0 -0.0251768582
C  C147  1  0.71521000  0.92839000  0.08241000  1.0 -0.0251768582
C  C148  1  0.92839000  0.71521000  0.27399000  1.0 -0.0251768582
C  C149  1  0.97601000  0.16759000  0.32161000  1.0 -0.0251768582
C  C150  1  0.16759000  0.97601000  0.53479000  1.0 -0.0251768582
C  C151  1  0.53479000  0.32161000  0.16759000  1.0 -0.0251768582
C  C152  1  0.32161000  0.53479000  0.97601000  1.0 -0.0251768582
C  C153  1  0.44405000  0.89437000  0.81903000  1.0 0.1045595717
C  C154  1  0.89437000  0.44405000  0.84255000  1.0 0.1061539063
C  C155  1  0.84255000  0.81903000  0.89437000  1.0 0.1045595717
C  C156  1  0.81903000  0.84255000  0.44405000  1.0 0.1045595717
C  C157  1  0.80595000  0.35563000  0.43097000  1.0 0.1045595717
C  C158  1  0.35563000  0.80595000  0.40745000  1.0 0.1045595717
C  C159  1  0.40745000  0.43097000  0.35563000  1.0 0.1045595717
C  C160  1  0.43097000  0.40745000  0.80595000  1.0 0.1045595717
C  C161  1  0.85701000  0.42713000  0.38047000  1.0 -0.1124322094
C  C162  1  0.42713000  0.85701000  0.33539000  1.0 -0.1124322094
C  C163  1  0.33539000  0.38047000  0.42713000  1.0 -0.1124322094
C  C164  1  0.38047000  0.33539000  0.85701000  1.0 -0.1124322094
C  C165  1  0.39299000  0.82287000  0.86953000  1.0 -0.1124322094
C  C166  1  0.82287000  0.39299000  0.91461000  1.0 -0.1124322094
C  C167  1  0.91461000  0.86953000  0.82287000  1.0 -0.1124322094
C  C168  1  0.86953000  0.91461000  0.39299000  1.0 -0.1124322094
C  C169  1  0.99923000  0.34195000  0.26105000  1.0 0.1061539063
C  C170  1  0.34195000  0.99923000  0.39777000  1.0 0.1061539063
C  C171  1  0.39777000  0.26105000  0.34195000  1.0 0.1061539063
C  C172  1  0.26105000  0.39777000  0.99923000  1.0 0.1061539063
C  C173  1  0.25077000  0.90805000  0.98895000  1.0 0.1061539063
C  C174  1  0.90805000  0.25077000  0.85223000  1.0 0.1061539063
C  C175  1  0.85223000  0.98895000  0.90805000  1.0 0.1061539063
C  C176  1  0.98895000  0.85223000  0.25077000  1.0 0.1061539063
C  C177  1  0.96895000  0.30467000  0.29753000  1.0 -0.0069807447
C  C178  1  0.30467000  0.96895000  0.42885000  1.0 -0.0069807447
C  C179  1  0.42885000  0.29753000  0.30467000  1.0 -0.0069807447
C  C180  1  0.29753000  0.42885000  0.96895000  1.0 -0.0069807447
C  C181  1  0.28105000  0.94533000  0.95247000  1.0 -0.0069807447
C  C182  1  0.94533000  0.28105000  0.82115000  1.0 -0.0069807447
C  C183  1  0.82115000  0.95247000  0.94533000  1.0 -0.0069807447
C  C184  1  0.95247000  0.82115000  0.28105000  1.0 -0.0069807447
C  C185  1  0.24104000  0.14574000  0.15046000  1.0 0.5734340869
C  C186  1  0.14574000  0.24104000  0.46276000  1.0 0.5734340869
C  C187  1  0.46276000  0.15046000  0.14574000  1.0 0.5734340869
C  C188  1  0.15046000  0.46276000  0.24104000  1.0 0.5734340869
C  C189  1  0.00896000  0.10426000  0.09954000  1.0 0.5734340869
C  C190  1  0.10426000  0.00896000  0.78724000  1.0 0.5734340869
C  C191  1  0.78724000  0.09954000  0.10426000  1.0 0.5734340869
C  C192  1  0.09954000  0.78724000  0.00896000  1.0 0.5734340869
C  C193  1  0.19472000  0.19472000  0.30528000  1.0 0.0688741862
C  C194  1  0.30528000  0.30528000  0.19472000  1.0 0.0610115662
C  C195  1  0.05528000  0.05528000  0.94472000  1.0 0.0688741862
C  C196  1  0.94472000  0.94472000  0.05528000  1.0 0.0610115662
C  C197  1  0.22809000  0.18327000  0.21913000  1.0 -0.0568043167
C  C198  1  0.18327000  0.22809000  0.36951000  1.0 -0.0568043167
C  C199  1  0.36951000  0.21913000  0.18327000  1.0 -0.0568043167
C  C200  1  0.21913000  0.36951000  0.22809000  1.0 -0.0568043167
C  C201  1  0.02191000  0.06673000  0.03087000  1.0 -0.0568043167
C  C202  1  0.06673000  0.02191000  0.88049000  1.0 -0.0568043167
C  C203  1  0.88049000  0.03087000  0.06673000  1.0 -0.0568043167
C  C204  1  0.03087000  0.88049000  0.02191000  1.0 -0.0568043167
C  C205  1  0.24692000  0.20762000  0.19978000  1.0 -0.1320568053
C  C206  1  0.20762000  0.24692000  0.34568000  1.0 -0.1320568053
C  C207  1  0.34568000  0.19978000  0.20762000  1.0 -0.1320568053
C  C208  1  0.19978000  0.34568000  0.24692000  1.0 -0.1320568053
C  C209  1  0.00308000  0.04238000  0.05022000  1.0 -0.1320568053
C  C210  1  0.04238000  0.00308000  0.90432000  1.0 -0.1320568053
C  C211  1  0.90432000  0.05022000  0.04238000  1.0 -0.1320568053
C  C212  1  0.05022000  0.90432000  0.00308000  1.0 -0.1320568053
C  C213  1  0.23839000  0.23839000  0.26161000  1.0 0.0610115662
C  C214  1  0.26161000  0.26161000  0.23839000  1.0 0.0610115662
C  C215  1  0.01161000  0.01161000  0.98839000  1.0 0.0610115662
C  C216  1  0.98839000  0.98839000  0.01161000  1.0 0.0610115662
N  N1  1  0.79268000  0.72284000  0.28336000  1.0 -0.2602500465
N  N2  1  0.72284000  0.79268000  0.20112000  1.0 -0.2602500465
N  N3  1  0.20112000  0.28336000  0.72284000  1.0 -0.2602500465
N  N4  1  0.28336000  0.20112000  0.79268000  1.0 -0.2602500465
N  N5  1  0.45732000  0.52716000  0.96664000  1.0 -0.2602500465
N  N6  1  0.52716000  0.45732000  0.04888000  1.0 -0.2602500465
N  N7  1  0.04888000  0.96664000  0.52716000  1.0 -0.2602500465
N  N8  1  0.96664000  0.04888000  0.45732000  1.0 -0.2602500465
N  N9  1  0.77913000  0.67895000  0.35645000  1.0 0.0081126257
N  N10  1  0.67895000  0.77913000  0.18547000  1.0 0.0081126257
N  N11  1  0.18547000  0.35645000  0.67895000  1.0 0.0081126257
N  N12  1  0.35645000  0.18547000  0.77913000  1.0 0.0081126257
N  N13  1  0.47087000  0.57105000  0.89355000  1.0 0.0081126257
N  N14  1  0.57105000  0.47087000  0.06453000  1.0 0.0081126257
N  N15  1  0.06453000  0.89355000  0.57105000  1.0 0.0081126257
N  N16  1  0.89355000  0.06453000  0.47087000  1.0 0.0081126257
N  N17  1  0.47045000  0.88975000  0.74025000  1.0 0.0022835131
N  N18  1  0.88975000  0.47045000  0.89955000  1.0 0.0022835131
N  N19  1  0.89955000  0.74025000  0.88975000  1.0 0.0022835131
N  N20  1  0.74025000  0.89955000  0.47045000  1.0 0.0022835131
N  N21  1  0.77955000  0.36025000  0.50975000  1.0 0.0022835131
N  N22  1  0.36025000  0.77955000  0.35045000  1.0 0.0022835131
N  N23  1  0.35045000  0.50975000  0.36025000  1.0 0.0022835131
N  N24  1  0.50975000  0.35045000  0.77955000  1.0 0.0022835131
N  N25  1  0.32587000  0.00977000  0.93403000  1.0 -0.2827767984
N  N26  1  0.00977000  0.32587000  0.73033000  1.0 -0.2827767984
N  N27  1  0.73033000  0.93403000  0.00977000  1.0 -0.2827767984
N  N28  1  0.93403000  0.73033000  0.32587000  1.0 -0.2827767984
N  N29  1  0.92413000  0.24023000  0.31597000  1.0 -0.2827767984
N  N30  1  0.24023000  0.92413000  0.51967000  1.0 -0.2827767984
N  N31  1  0.51967000  0.31597000  0.24023000  1.0 -0.2827767984
N  N32  1  0.31597000  0.51967000  0.92413000  1.0 -0.2827767984
N  N33  1  0.87695000  0.45055000  0.35685000  1.0 0.0022835131
N  N34  1  0.45055000  0.87695000  0.31565000  1.0 0.0022835131
N  N35  1  0.31565000  0.35685000  0.45055000  1.0 0.0022835131
N  N36  1  0.35685000  0.31565000  0.87695000  1.0 0.0022835131
N  N37  1  0.37305000  0.79945000  0.89315000  1.0 0.0022835131
N  N38  1  0.79945000  0.37305000  0.93435000  1.0 0.0022835131
N  N39  1  0.93435000  0.89315000  0.79945000  1.0 0.0022835131
N  N40  1  0.89315000  0.93435000  0.37305000  1.0 0.0022835131
N  N41  1  0.05744000  0.25202000  0.22338000  1.0 -0.26644472
N  N42  1  0.25202000  0.05744000  0.46716000  1.0 -0.26644472
N  N43  1  0.46716000  0.22338000  0.25202000  1.0 -0.26644472
N  N44  1  0.22338000  0.46716000  0.05744000  1.0 -0.26644472
N  N45  1  0.19256000  0.99798000  0.02662000  1.0 -0.26644472
N  N46  1  0.99798000  0.19256000  0.78284000  1.0 -0.26644472
N  N47  1  0.78284000  0.02662000  0.99798000  1.0 -0.26644472
N  N48  1  0.02662000  0.78284000  0.19256000  1.0 -0.26644472
O  O1  1  0.51613000  0.26505000  0.36755000  1.0 -0.5295589668
O  O2  1  0.26505000  0.51613000  0.85127000  1.0 -0.5295589668
O  O3  1  0.85127000  0.36755000  0.26505000  1.0 -0.5295589668
O  O4  1  0.36755000  0.85127000  0.51613000  1.0 -0.5295589668
O  O5  1  0.73387000  0.98495000  0.88245000  1.0 -0.5295589668
O  O6  1  0.98495000  0.73387000  0.39873000  1.0 -0.5295589668
O  O7  1  0.39873000  0.88245000  0.98495000  1.0 -0.5295589668
O  O8  1  0.88245000  0.39873000  0.73387000  1.0 -0.5295589668
O  O9  1  0.65724000  0.09338000  0.20542000  1.0 -0.5295589668
O  O10  1  0.09338000  0.65724000  0.04396000  1.0 -0.5295589668
O  O11  1  0.04396000  0.20542000  0.09338000  1.0 -0.5295589668
O  O12  1  0.20542000  0.04396000  0.65724000  1.0 -0.5295589668
O  O13  1  0.59276000  0.15662000  0.04458000  1.0 -0.5295589668
O  O14  1  0.15662000  0.59276000  0.20604000  1.0 -0.5295589668
O  O15  1  0.20604000  0.04458000  0.15662000  1.0 -0.5295589668
O  O16  1  0.04458000  0.20604000  0.59276000  1.0 -0.5295589668
O  O17  1  0.69218000  0.91162000  0.25058000  1.0 -0.5411928721
O  O18  1  0.91162000  0.69218000  0.14562000  1.0 -0.5411928721
O  O19  1  0.14562000  0.25058000  0.91162000  1.0 -0.5411928721
O  O20  1  0.25058000  0.14562000  0.69218000  1.0 -0.5411928721
O  O21  1  0.55782000  0.33838000  0.99942000  1.0 -0.5411928721
O  O22  1  0.33838000  0.55782000  0.10438000  1.0 -0.5411928721
O  O23  1  0.10438000  0.99942000  0.33838000  1.0 -0.5411928721
O  O24  1  0.99942000  0.10438000  0.55782000  1.0 -0.5411928721
O  O25  1  0.60176000  0.97716000  0.41784000  1.0 -0.5642377563
O  O26  1  0.97716000  0.60176000  0.00324000  1.0 -0.5642377563
O  O27  1  0.00324000  0.41784000  0.97716000  1.0 -0.5642377563
O  O28  1  0.41784000  0.00324000  0.60176000  1.0 -0.5642377563
O  O29  1  0.64824000  0.27284000  0.83216000  1.0 -0.5642377563
O  O30  1  0.27284000  0.64824000  0.24676000  1.0 -0.5642377563
O  O31  1  0.24676000  0.83216000  0.27284000  1.0 -0.5642377563
O  O32  1  0.83216000  0.24676000  0.64824000  1.0 -0.5642377563
O  O33  1  0.23492000  0.16832000  0.10148000  1.0 -0.5705752574
O  O34  1  0.16832000  0.23492000  0.49528000  1.0 -0.5705752574
O  O35  1  0.49528000  0.10148000  0.16832000  1.0 -0.5705752574
O  O36  1  0.10148000  0.49528000  0.23492000  1.0 -0.5705752574
O  O37  1  0.01508000  0.08168000  0.14852000  1.0 -0.5705752574
O  O38  1  0.08168000  0.01508000  0.75472000  1.0 -0.5705752574
O  O39  1  0.75472000  0.14852000  0.08168000  1.0 -0.5705752574
O  O40  1  0.14852000  0.75472000  0.01508000  1.0 -0.5705752574
O  O41  1  0.25563000  0.09345000  0.14935000  1.0 -0.5295589668
O  O42  1  0.09345000  0.25563000  0.50157000  1.0 -0.5295589668
O  O43  1  0.50157000  0.14935000  0.09345000  1.0 -0.5295589668
O  O44  1  0.14935000  0.50157000  0.25563000  1.0 -0.5295589668
O  O45  1  0.99437000  0.15655000  0.10065000  1.0 -0.5295589668
O  O46  1  0.15655000  0.99437000  0.74843000  1.0 -0.5295589668
O  O47  1  0.74843000  0.10065000  0.15655000  1.0 -0.5295589668
O  O48  1  0.10065000  0.74843000  0.99437000  1.0 -0.5295589668
