# DDEC6 charges by PACMAN v1.1 (https://github.com/mtap-research/PACMAN-charge/)
data_ZUCKIT_ASR_pacman
_symmetry_space_group_name_H-M   'P 1'
_cell_length_a   36.45140000
_cell_length_b   36.45140000
_cell_length_c   36.45140000
_cell_angle_alpha   60.00000000
_cell_angle_beta   60.00000000
_cell_angle_gamma   60.00000000
_symmetry_Int_Tables_number   1
_chemical_formula_structural   YH18(C6O)4
_chemical_formula_sum   'Y24 H432 C576 O96'
_cell_volume   34247.40276748
_cell_formula_units_Z   24
loop_
 _symmetry_equiv_pos_site_id
 _symmetry_equiv_pos_as_xyz
  1  'x, y, z'
loop_
 _atom_site_type_symbol
 _atom_site_label
 _atom_site_symmetry_multiplicity
 _atom_site_fract_x
 _atom_site_fract_y
 _atom_site_fract_z
 _atom_site_occupancy
 _atom_site_charge
Y  Y1  1  0.45343000  0.91965000  0.54657000  1.0 1.6386094443
Y  Y2  1  0.91965000  0.45343000  0.08035000  1.0 1.6519628942
Y  Y3  1  0.54657000  0.08035000  0.45343000  1.0 1.6386094443
Y  Y4  1  0.08035000  0.54657000  0.91965000  1.0 1.6386094443
Y  Y5  1  0.54657000  0.45343000  0.91965000  1.0 1.6386094443
Y  Y6  1  0.08035000  0.91965000  0.45343000  1.0 1.6386094443
Y  Y7  1  0.45343000  0.54657000  0.08035000  1.0 1.6386094443
Y  Y8  1  0.91965000  0.08035000  0.54657000  1.0 1.6386094443
Y  Y9  1  0.91965000  0.54657000  0.45343000  1.0 1.6386094443
Y  Y10  1  0.45343000  0.08035000  0.91965000  1.0 1.6386094443
Y  Y11  1  0.08035000  0.45343000  0.54657000  1.0 1.6386094443
Y  Y12  1  0.54657000  0.91965000  0.08035000  1.0 1.6386094443
Y  Y13  1  0.04657000  0.58035000  0.41965000  1.0 1.6386094443
Y  Y14  1  0.58035000  0.04657000  0.95343000  1.0 1.6386094443
Y  Y15  1  0.95343000  0.41965000  0.58035000  1.0 1.6519628942
Y  Y16  1  0.41965000  0.95343000  0.04657000  1.0 1.6386094443
Y  Y17  1  0.95343000  0.04657000  0.41965000  1.0 1.6386094443
Y  Y18  1  0.41965000  0.58035000  0.95343000  1.0 1.6386094443
Y  Y19  1  0.04657000  0.95343000  0.58035000  1.0 1.6386094443
Y  Y20  1  0.58035000  0.41965000  0.04657000  1.0 1.6519628942
Y  Y21  1  0.58035000  0.95343000  0.41965000  1.0 1.6386094443
Y  Y22  1  0.04657000  0.41965000  0.95343000  1.0 1.6386094443
Y  Y23  1  0.41965000  0.04657000  0.58035000  1.0 1.6386094443
Y  Y24  1  0.95343000  0.58035000  0.04657000  1.0 1.6386094443
H  H1  1  0.42810000  0.96410000  0.69150000  1.0 0.1203230308
H  H2  1  0.96410000  0.42810000  0.91630000  1.0 0.1203230308
H  H3  1  0.69150000  0.91630000  0.42810000  1.0 0.1203230308
H  H4  1  0.91630000  0.69150000  0.96410000  1.0 0.1203230308
H  H5  1  0.69150000  0.42810000  0.96410000  1.0 0.1203230308
H  H6  1  0.91630000  0.96410000  0.42810000  1.0 0.1203230308
H  H7  1  0.42810000  0.69150000  0.91630000  1.0 0.1203230308
H  H8  1  0.96410000  0.91630000  0.69150000  1.0 0.1203230308
H  H9  1  0.96410000  0.69150000  0.42810000  1.0 0.1203230308
H  H10  1  0.42810000  0.91630000  0.96410000  1.0 0.1203230308
H  H11  1  0.91630000  0.42810000  0.69150000  1.0 0.1203230308
H  H12  1  0.69150000  0.96410000  0.91630000  1.0 0.1203230308
H  H13  1  0.07190000  0.53590000  0.58370000  1.0 0.1203230308
H  H14  1  0.53590000  0.07190000  0.80850000  1.0 0.1203230308
H  H15  1  0.80850000  0.58370000  0.53590000  1.0 0.1203230308
H  H16  1  0.58370000  0.80850000  0.07190000  1.0 0.1203230308
H  H17  1  0.80850000  0.07190000  0.58370000  1.0 0.1203230308
H  H18  1  0.58370000  0.53590000  0.80850000  1.0 0.1203230308
H  H19  1  0.07190000  0.80850000  0.53590000  1.0 0.1203230308
H  H20  1  0.53590000  0.58370000  0.07190000  1.0 0.1203230308
H  H21  1  0.53590000  0.80850000  0.58370000  1.0 0.1203230308
H  H22  1  0.07190000  0.58370000  0.80850000  1.0 0.1203230308
H  H23  1  0.58370000  0.07190000  0.53590000  1.0 0.1203230308
H  H24  1  0.80850000  0.53590000  0.07190000  1.0 0.1203230308
H  H25  1  0.57190000  0.03590000  0.30850000  1.0 0.1203230308
H  H26  1  0.03590000  0.57190000  0.08370000  1.0 0.1203230308
H  H27  1  0.30850000  0.08370000  0.57190000  1.0 0.1203230308
H  H28  1  0.08370000  0.30850000  0.03590000  1.0 0.1203230308
H  H29  1  0.30850000  0.57190000  0.03590000  1.0 0.1203230308
H  H30  1  0.08370000  0.03590000  0.57190000  1.0 0.1203230308
H  H31  1  0.57190000  0.30850000  0.08370000  1.0 0.1203230308
H  H32  1  0.03590000  0.08370000  0.30850000  1.0 0.1203230308
H  H33  1  0.03590000  0.30850000  0.57190000  1.0 0.1203230308
H  H34  1  0.57190000  0.08370000  0.03590000  1.0 0.1203230308
H  H35  1  0.08370000  0.57190000  0.30850000  1.0 0.1203230308
H  H36  1  0.30850000  0.03590000  0.08370000  1.0 0.1203230308
H  H37  1  0.92810000  0.46410000  0.41630000  1.0 0.1203230308
H  H38  1  0.46410000  0.92810000  0.19150000  1.0 0.1203230308
H  H39  1  0.19150000  0.41630000  0.46410000  1.0 0.1203230308
H  H40  1  0.41630000  0.19150000  0.92810000  1.0 0.1203230308
H  H41  1  0.19150000  0.92810000  0.41630000  1.0 0.1203230308
H  H42  1  0.41630000  0.46410000  0.19150000  1.0 0.1203230308
H  H43  1  0.92810000  0.19150000  0.46410000  1.0 0.1203230308
H  H44  1  0.46410000  0.41630000  0.92810000  1.0 0.1203230308
H  H45  1  0.46410000  0.19150000  0.41630000  1.0 0.1203230308
H  H46  1  0.92810000  0.41630000  0.19150000  1.0 0.1203230308
H  H47  1  0.41630000  0.92810000  0.46410000  1.0 0.1203230308
H  H48  1  0.19150000  0.46410000  0.92810000  1.0 0.1203230308
H  H49  1  0.45670000  0.80190000  0.76230000  1.0 0.1300625593
H  H50  1  0.80190000  0.45670000  0.97910000  1.0 0.1300625593
H  H51  1  0.76230000  0.97910000  0.45670000  1.0 0.1203230308
H  H52  1  0.97910000  0.76230000  0.80190000  1.0 0.1300625593
H  H53  1  0.76230000  0.45670000  0.80190000  1.0 0.1300625593
H  H54  1  0.97910000  0.80190000  0.45670000  1.0 0.1300625593
H  H55  1  0.45670000  0.76230000  0.97910000  1.0 0.1203230308
H  H56  1  0.80190000  0.97910000  0.76230000  1.0 0.1300625593
H  H57  1  0.80190000  0.76230000  0.45670000  1.0 0.1300625593
H  H58  1  0.45670000  0.97910000  0.80190000  1.0 0.1300625593
H  H59  1  0.97910000  0.45670000  0.76230000  1.0 0.1300625593
H  H60  1  0.76230000  0.80190000  0.97910000  1.0 0.1300625593
H  H61  1  0.04330000  0.69810000  0.52090000  1.0 0.1300625593
H  H62  1  0.69810000  0.04330000  0.73770000  1.0 0.1300625593
H  H63  1  0.73770000  0.52090000  0.69810000  1.0 0.1300625593
H  H64  1  0.52090000  0.73770000  0.04330000  1.0 0.1203230308
H  H65  1  0.73770000  0.04330000  0.52090000  1.0 0.1300625593
H  H66  1  0.52090000  0.69810000  0.73770000  1.0 0.1300625593
H  H67  1  0.04330000  0.73770000  0.69810000  1.0 0.1300625593
H  H68  1  0.69810000  0.52090000  0.04330000  1.0 0.1203230308
H  H69  1  0.69810000  0.73770000  0.52090000  1.0 0.1300625593
H  H70  1  0.04330000  0.52090000  0.73770000  1.0 0.1300625593
H  H71  1  0.52090000  0.04330000  0.69810000  1.0 0.1300625593
H  H72  1  0.73770000  0.69810000  0.04330000  1.0 0.1300625593
H  H73  1  0.54330000  0.19810000  0.23770000  1.0 0.1203230308
H  H74  1  0.19810000  0.54330000  0.02090000  1.0 0.1300625593
H  H75  1  0.23770000  0.02090000  0.54330000  1.0 0.1300625593
H  H76  1  0.02090000  0.23770000  0.19810000  1.0 0.1203230308
H  H77  1  0.23770000  0.54330000  0.19810000  1.0 0.1300625593
H  H78  1  0.02090000  0.19810000  0.54330000  1.0 0.1300625593
H  H79  1  0.54330000  0.23770000  0.02090000  1.0 0.1300625593
H  H80  1  0.19810000  0.02090000  0.23770000  1.0 0.1300625593
H  H81  1  0.19810000  0.23770000  0.54330000  1.0 0.1300625593
H  H82  1  0.54330000  0.02090000  0.19810000  1.0 0.1300625593
H  H83  1  0.02090000  0.54330000  0.23770000  1.0 0.1300625593
H  H84  1  0.23770000  0.19810000  0.02090000  1.0 0.1300625593
H  H85  1  0.95670000  0.30190000  0.47910000  1.0 0.1300625593
H  H86  1  0.30190000  0.95670000  0.26230000  1.0 0.1300625593
H  H87  1  0.26230000  0.47910000  0.30190000  1.0 0.1300625593
H  H88  1  0.47910000  0.26230000  0.95670000  1.0 0.1300625593
H  H89  1  0.26230000  0.95670000  0.47910000  1.0 0.1300625593
H  H90  1  0.47910000  0.30190000  0.26230000  1.0 0.1300625593
H  H91  1  0.95670000  0.26230000  0.30190000  1.0 0.1300625593
H  H92  1  0.30190000  0.47910000  0.95670000  1.0 0.1300625593
H  H93  1  0.30190000  0.26230000  0.47910000  1.0 0.1300625593
H  H94  1  0.95670000  0.47910000  0.26230000  1.0 0.1300625593
H  H95  1  0.47910000  0.95670000  0.30190000  1.0 0.1300625593
H  H96  1  0.26230000  0.30190000  0.95670000  1.0 0.1300625593
H  H97  1  0.49900000  0.96400000  0.71940000  1.0 0.1300625593
H  H98  1  0.96400000  0.49900000  0.81760000  1.0 0.1300625593
H  H99  1  0.71940000  0.81760000  0.49900000  1.0 0.1300625593
H  H100  1  0.81760000  0.71940000  0.96400000  1.0 0.1300625593
H  H101  1  0.71940000  0.49900000  0.96400000  1.0 0.1300625593
H  H102  1  0.81760000  0.96400000  0.49900000  1.0 0.1300625593
H  H103  1  0.49900000  0.71940000  0.81760000  1.0 0.1300625593
H  H104  1  0.96400000  0.81760000  0.71940000  1.0 0.1300625593
H  H105  1  0.96400000  0.71940000  0.49900000  1.0 0.1300625593
H  H106  1  0.49900000  0.81760000  0.96400000  1.0 0.1300625593
H  H107  1  0.81760000  0.49900000  0.71940000  1.0 0.1300625593
H  H108  1  0.71940000  0.96400000  0.81760000  1.0 0.1300625593
H  H109  1  0.00100000  0.53600000  0.68240000  1.0 0.1300625593
H  H110  1  0.53600000  0.00100000  0.78060000  1.0 0.1300625593
H  H111  1  0.78060000  0.68240000  0.53600000  1.0 0.1300625593
H  H112  1  0.68240000  0.78060000  0.00100000  1.0 0.1300625593
H  H113  1  0.78060000  0.00100000  0.68240000  1.0 0.1300625593
H  H114  1  0.68240000  0.53600000  0.78060000  1.0 0.1300625593
H  H115  1  0.00100000  0.78060000  0.53600000  1.0 0.1300625593
H  H116  1  0.53600000  0.68240000  0.00100000  1.0 0.1300625593
H  H117  1  0.53600000  0.78060000  0.68240000  1.0 0.1300625593
H  H118  1  0.00100000  0.68240000  0.78060000  1.0 0.1300625593
H  H119  1  0.68240000  0.00100000  0.53600000  1.0 0.1300625593
H  H120  1  0.78060000  0.53600000  0.00100000  1.0 0.1300625593
H  H121  1  0.50100000  0.03600000  0.28060000  1.0 0.1300625593
H  H122  1  0.03600000  0.50100000  0.18240000  1.0 0.1300625593
H  H123  1  0.28060000  0.18240000  0.50100000  1.0 0.1300625593
H  H124  1  0.18240000  0.28060000  0.03600000  1.0 0.1300625593
H  H125  1  0.28060000  0.50100000  0.03600000  1.0 0.1300625593
H  H126  1  0.18240000  0.03600000  0.50100000  1.0 0.1300625593
H  H127  1  0.50100000  0.28060000  0.18240000  1.0 0.1300625593
H  H128  1  0.03600000  0.18240000  0.28060000  1.0 0.1300625593
H  H129  1  0.03600000  0.28060000  0.50100000  1.0 0.1300625593
H  H130  1  0.50100000  0.18240000  0.03600000  1.0 0.1300625593
H  H131  1  0.18240000  0.50100000  0.28060000  1.0 0.1300625593
H  H132  1  0.28060000  0.03600000  0.18240000  1.0 0.1300625593
H  H133  1  0.99900000  0.46400000  0.31760000  1.0 0.1300625593
H  H134  1  0.46400000  0.99900000  0.21940000  1.0 0.1300625593
H  H135  1  0.21940000  0.31760000  0.46400000  1.0 0.1300625593
H  H136  1  0.31760000  0.21940000  0.99900000  1.0 0.1300625593
H  H137  1  0.21940000  0.99900000  0.31760000  1.0 0.1300625593
H  H138  1  0.31760000  0.46400000  0.21940000  1.0 0.1300625593
H  H139  1  0.99900000  0.21940000  0.46400000  1.0 0.1300625593
H  H140  1  0.46400000  0.31760000  0.99900000  1.0 0.1300625593
H  H141  1  0.46400000  0.21940000  0.31760000  1.0 0.1300625593
H  H142  1  0.99900000  0.31760000  0.21940000  1.0 0.1300625593
H  H143  1  0.31760000  0.99900000  0.46400000  1.0 0.1300625593
H  H144  1  0.21940000  0.46400000  0.99900000  1.0 0.1300625593
H  H145  1  0.52150000  0.91050000  0.73670000  1.0 0.1300625593
H  H146  1  0.91050000  0.52150000  0.83130000  1.0 0.1300625593
H  H147  1  0.73670000  0.83130000  0.52150000  1.0 0.1300625593
H  H148  1  0.83130000  0.73670000  0.91050000  1.0 0.1300625593
H  H149  1  0.73670000  0.52150000  0.91050000  1.0 0.1300625593
H  H150  1  0.83130000  0.91050000  0.52150000  1.0 0.1300625593
H  H151  1  0.52150000  0.73670000  0.83130000  1.0 0.1300625593
H  H152  1  0.91050000  0.83130000  0.73670000  1.0 0.1300625593
H  H153  1  0.91050000  0.73670000  0.52150000  1.0 0.1300625593
H  H154  1  0.52150000  0.83130000  0.91050000  1.0 0.1300625593
H  H155  1  0.83130000  0.52150000  0.73670000  1.0 0.1300625593
H  H156  1  0.73670000  0.91050000  0.83130000  1.0 0.1300625593
H  H157  1  0.97850000  0.58950000  0.66870000  1.0 0.1300625593
H  H158  1  0.58950000  0.97850000  0.76330000  1.0 0.1300625593
H  H159  1  0.76330000  0.66870000  0.58950000  1.0 0.1300625593
H  H160  1  0.66870000  0.76330000  0.97850000  1.0 0.1300625593
H  H161  1  0.76330000  0.97850000  0.66870000  1.0 0.1300625593
H  H162  1  0.66870000  0.58950000  0.76330000  1.0 0.1300625593
H  H163  1  0.97850000  0.76330000  0.58950000  1.0 0.1300625593
H  H164  1  0.58950000  0.66870000  0.97850000  1.0 0.1300625593
H  H165  1  0.58950000  0.76330000  0.66870000  1.0 0.1300625593
H  H166  1  0.97850000  0.66870000  0.76330000  1.0 0.1300625593
H  H167  1  0.66870000  0.97850000  0.58950000  1.0 0.1300625593
H  H168  1  0.76330000  0.58950000  0.97850000  1.0 0.1300625593
H  H169  1  0.47850000  0.08950000  0.26330000  1.0 0.1300625593
H  H170  1  0.08950000  0.47850000  0.16870000  1.0 0.1300625593
H  H171  1  0.26330000  0.16870000  0.47850000  1.0 0.1300625593
H  H172  1  0.16870000  0.26330000  0.08950000  1.0 0.1300625593
H  H173  1  0.26330000  0.47850000  0.08950000  1.0 0.1300625593
H  H174  1  0.16870000  0.08950000  0.47850000  1.0 0.1300625593
H  H175  1  0.47850000  0.26330000  0.16870000  1.0 0.1300625593
H  H176  1  0.08950000  0.16870000  0.26330000  1.0 0.1300625593
H  H177  1  0.08950000  0.26330000  0.47850000  1.0 0.1300625593
H  H178  1  0.47850000  0.16870000  0.08950000  1.0 0.1300625593
H  H179  1  0.16870000  0.47850000  0.26330000  1.0 0.1300625593
H  H180  1  0.26330000  0.08950000  0.16870000  1.0 0.1300625593
H  H181  1  0.02150000  0.41050000  0.33130000  1.0 0.1300625593
H  H182  1  0.41050000  0.02150000  0.23670000  1.0 0.1300625593
H  H183  1  0.23670000  0.33130000  0.41050000  1.0 0.1300625593
H  H184  1  0.33130000  0.23670000  0.02150000  1.0 0.1300625593
H  H185  1  0.23670000  0.02150000  0.33130000  1.0 0.1300625593
H  H186  1  0.33130000  0.41050000  0.23670000  1.0 0.1300625593
H  H187  1  0.02150000  0.23670000  0.41050000  1.0 0.1300625593
H  H188  1  0.41050000  0.33130000  0.02150000  1.0 0.1300625593
H  H189  1  0.41050000  0.23670000  0.33130000  1.0 0.1300625593
H  H190  1  0.02150000  0.33130000  0.23670000  1.0 0.1300625593
H  H191  1  0.33130000  0.02150000  0.41050000  1.0 0.1300625593
H  H192  1  0.23670000  0.41050000  0.02150000  1.0 0.1300625593
H  H193  1  0.50770000  0.93890000  0.76650000  1.0 0.1300625593
H  H194  1  0.93890000  0.50770000  0.78690000  1.0 0.1300625593
H  H195  1  0.76650000  0.78690000  0.50770000  1.0 0.1203230308
H  H196  1  0.78690000  0.76650000  0.93890000  1.0 0.1203230308
H  H197  1  0.76650000  0.50770000  0.93890000  1.0 0.1203230308
H  H198  1  0.78690000  0.93890000  0.50770000  1.0 0.1203230308
H  H199  1  0.50770000  0.76650000  0.78690000  1.0 0.1300625593
H  H200  1  0.93890000  0.78690000  0.76650000  1.0 0.1300625593
H  H201  1  0.93890000  0.76650000  0.50770000  1.0 0.1203230308
H  H202  1  0.50770000  0.78690000  0.93890000  1.0 0.1300625593
H  H203  1  0.78690000  0.50770000  0.76650000  1.0 0.1300625593
H  H204  1  0.76650000  0.93890000  0.78690000  1.0 0.1203230308
H  H205  1  0.99230000  0.56110000  0.71310000  1.0 0.1300625593
H  H206  1  0.56110000  0.99230000  0.73350000  1.0 0.1203230308
H  H207  1  0.73350000  0.71310000  0.56110000  1.0 0.1203230308
H  H208  1  0.71310000  0.73350000  0.99230000  1.0 0.1203230308
H  H209  1  0.73350000  0.99230000  0.71310000  1.0 0.1203230308
H  H210  1  0.71310000  0.56110000  0.73350000  1.0 0.1203230308
H  H211  1  0.99230000  0.73350000  0.56110000  1.0 0.1300625593
H  H212  1  0.56110000  0.71310000  0.99230000  1.0 0.1203230308
H  H213  1  0.56110000  0.73350000  0.71310000  1.0 0.1203230308
H  H214  1  0.99230000  0.71310000  0.73350000  1.0 0.1300625593
H  H215  1  0.71310000  0.99230000  0.56110000  1.0 0.1203230308
H  H216  1  0.73350000  0.56110000  0.99230000  1.0 0.1203230308
H  H217  1  0.49230000  0.06110000  0.23350000  1.0 0.1300625593
H  H218  1  0.06110000  0.49230000  0.21310000  1.0 0.1203230308
H  H219  1  0.23350000  0.21310000  0.49230000  1.0 0.1300625593
H  H220  1  0.21310000  0.23350000  0.06110000  1.0 0.1300625593
H  H221  1  0.23350000  0.49230000  0.06110000  1.0 0.1300625593
H  H222  1  0.21310000  0.06110000  0.49230000  1.0 0.1300625593
H  H223  1  0.49230000  0.23350000  0.21310000  1.0 0.1300625593
H  H224  1  0.06110000  0.21310000  0.23350000  1.0 0.1300625593
H  H225  1  0.06110000  0.23350000  0.49230000  1.0 0.1300625593
H  H226  1  0.49230000  0.21310000  0.06110000  1.0 0.1300625593
H  H227  1  0.21310000  0.49230000  0.23350000  1.0 0.1300625593
H  H228  1  0.23350000  0.06110000  0.21310000  1.0 0.1300625593
H  H229  1  0.00770000  0.43890000  0.28690000  1.0 0.1203230308
H  H230  1  0.43890000  0.00770000  0.26650000  1.0 0.1203230308
H  H231  1  0.26650000  0.28690000  0.43890000  1.0 0.1300625593
H  H232  1  0.28690000  0.26650000  0.00770000  1.0 0.1300625593
H  H233  1  0.26650000  0.00770000  0.28690000  1.0 0.1203230308
H  H234  1  0.28690000  0.43890000  0.26650000  1.0 0.1300625593
H  H235  1  0.00770000  0.26650000  0.43890000  1.0 0.1203230308
H  H236  1  0.43890000  0.28690000  0.00770000  1.0 0.1300625593
H  H237  1  0.43890000  0.26650000  0.28690000  1.0 0.1300625593
H  H238  1  0.00770000  0.28690000  0.26650000  1.0 0.1203230308
H  H239  1  0.28690000  0.00770000  0.43890000  1.0 0.1203230308
H  H240  1  0.26650000  0.43890000  0.00770000  1.0 0.1300625593
H  H241  1  0.38550000  0.95590000  0.79110000  1.0 0.1300625593
H  H242  1  0.95590000  0.38550000  0.86750000  1.0 0.1300625593
H  H243  1  0.79110000  0.86750000  0.38550000  1.0 0.1300625593
H  H244  1  0.86750000  0.79110000  0.95590000  1.0 0.1300625593
H  H245  1  0.79110000  0.38550000  0.95590000  1.0 0.1300625593
H  H246  1  0.86750000  0.95590000  0.38550000  1.0 0.1300625593
H  H247  1  0.38550000  0.79110000  0.86750000  1.0 0.1300625593
H  H248  1  0.95590000  0.86750000  0.79110000  1.0 0.1300625593
H  H249  1  0.95590000  0.79110000  0.38550000  1.0 0.1300625593
H  H250  1  0.38550000  0.86750000  0.95590000  1.0 0.1300625593
H  H251  1  0.86750000  0.38550000  0.79110000  1.0 0.1300625593
H  H252  1  0.79110000  0.95590000  0.86750000  1.0 0.1300625593
H  H253  1  0.11450000  0.54410000  0.63250000  1.0 0.1300625593
H  H254  1  0.54410000  0.11450000  0.70890000  1.0 0.1300625593
H  H255  1  0.70890000  0.63250000  0.54410000  1.0 0.1300625593
H  H256  1  0.63250000  0.70890000  0.11450000  1.0 0.1300625593
H  H257  1  0.70890000  0.11450000  0.63250000  1.0 0.1300625593
H  H258  1  0.63250000  0.54410000  0.70890000  1.0 0.1300625593
H  H259  1  0.11450000  0.70890000  0.54410000  1.0 0.1300625593
H  H260  1  0.54410000  0.63250000  0.11450000  1.0 0.1300625593
H  H261  1  0.54410000  0.70890000  0.63250000  1.0 0.1300625593
H  H262  1  0.11450000  0.63250000  0.70890000  1.0 0.1300625593
H  H263  1  0.63250000  0.11450000  0.54410000  1.0 0.1300625593
H  H264  1  0.70890000  0.54410000  0.11450000  1.0 0.1300625593
H  H265  1  0.61450000  0.04410000  0.20890000  1.0 0.1300625593
H  H266  1  0.04410000  0.61450000  0.13250000  1.0 0.1300625593
H  H267  1  0.20890000  0.13250000  0.61450000  1.0 0.1300625593
H  H268  1  0.13250000  0.20890000  0.04410000  1.0 0.1300625593
H  H269  1  0.20890000  0.61450000  0.04410000  1.0 0.1300625593
H  H270  1  0.13250000  0.04410000  0.61450000  1.0 0.1300625593
H  H271  1  0.61450000  0.20890000  0.13250000  1.0 0.1300625593
H  H272  1  0.04410000  0.13250000  0.20890000  1.0 0.1300625593
H  H273  1  0.04410000  0.20890000  0.61450000  1.0 0.1300625593
H  H274  1  0.61450000  0.13250000  0.04410000  1.0 0.1300625593
H  H275  1  0.13250000  0.61450000  0.20890000  1.0 0.1300625593
H  H276  1  0.20890000  0.04410000  0.13250000  1.0 0.1300625593
H  H277  1  0.88550000  0.45590000  0.36750000  1.0 0.1300625593
H  H278  1  0.45590000  0.88550000  0.29110000  1.0 0.1300625593
H  H279  1  0.29110000  0.36750000  0.45590000  1.0 0.1300625593
H  H280  1  0.36750000  0.29110000  0.88550000  1.0 0.1300625593
H  H281  1  0.29110000  0.88550000  0.36750000  1.0 0.1300625593
H  H282  1  0.36750000  0.45590000  0.29110000  1.0 0.1300625593
H  H283  1  0.88550000  0.29110000  0.45590000  1.0 0.1300625593
H  H284  1  0.45590000  0.36750000  0.88550000  1.0 0.1300625593
H  H285  1  0.45590000  0.29110000  0.36750000  1.0 0.1300625593
H  H286  1  0.88550000  0.36750000  0.29110000  1.0 0.1300625593
H  H287  1  0.36750000  0.88550000  0.45590000  1.0 0.1300625593
H  H288  1  0.29110000  0.45590000  0.88550000  1.0 0.1300625593
H  H289  1  0.40550000  0.99090000  0.74470000  1.0 0.1203230308
H  H290  1  0.99090000  0.40550000  0.85890000  1.0 0.1203230308
H  H291  1  0.74470000  0.85890000  0.40550000  1.0 0.1203230308
H  H292  1  0.85890000  0.74470000  0.99090000  1.0 0.1203230308
H  H293  1  0.74470000  0.40550000  0.99090000  1.0 0.1203230308
H  H294  1  0.85890000  0.99090000  0.40550000  1.0 0.1203230308
H  H295  1  0.40550000  0.74470000  0.85890000  1.0 0.1203230308
H  H296  1  0.99090000  0.85890000  0.74470000  1.0 0.1203230308
H  H297  1  0.99090000  0.74470000  0.40550000  1.0 0.1203230308
H  H298  1  0.40550000  0.85890000  0.99090000  1.0 0.1203230308
H  H299  1  0.85890000  0.40550000  0.74470000  1.0 0.1203230308
H  H300  1  0.74470000  0.99090000  0.85890000  1.0 0.1203230308
H  H301  1  0.09450000  0.50910000  0.64110000  1.0 0.1203230308
H  H302  1  0.50910000  0.09450000  0.75530000  1.0 0.1203230308
H  H303  1  0.75530000  0.64110000  0.50910000  1.0 0.1203230308
H  H304  1  0.64110000  0.75530000  0.09450000  1.0 0.1203230308
H  H305  1  0.75530000  0.09450000  0.64110000  1.0 0.1203230308
H  H306  1  0.64110000  0.50910000  0.75530000  1.0 0.1203230308
H  H307  1  0.09450000  0.75530000  0.50910000  1.0 0.1203230308
H  H308  1  0.50910000  0.64110000  0.09450000  1.0 0.1203230308
H  H309  1  0.50910000  0.75530000  0.64110000  1.0 0.1203230308
H  H310  1  0.09450000  0.64110000  0.75530000  1.0 0.1203230308
H  H311  1  0.64110000  0.09450000  0.50910000  1.0 0.1203230308
H  H312  1  0.75530000  0.50910000  0.09450000  1.0 0.1203230308
H  H313  1  0.59450000  0.00910000  0.25530000  1.0 0.1203230308
H  H314  1  0.00910000  0.59450000  0.14110000  1.0 0.1203230308
H  H315  1  0.25530000  0.14110000  0.59450000  1.0 0.1203230308
H  H316  1  0.14110000  0.25530000  0.00910000  1.0 0.1203230308
H  H317  1  0.25530000  0.59450000  0.00910000  1.0 0.1203230308
H  H318  1  0.14110000  0.00910000  0.59450000  1.0 0.1203230308
H  H319  1  0.59450000  0.25530000  0.14110000  1.0 0.1203230308
H  H320  1  0.00910000  0.14110000  0.25530000  1.0 0.1203230308
H  H321  1  0.00910000  0.25530000  0.59450000  1.0 0.1203230308
H  H322  1  0.59450000  0.14110000  0.00910000  1.0 0.1203230308
H  H323  1  0.14110000  0.59450000  0.25530000  1.0 0.1203230308
H  H324  1  0.25530000  0.00910000  0.14110000  1.0 0.1203230308
H  H325  1  0.90550000  0.49090000  0.35890000  1.0 0.1203230308
H  H326  1  0.49090000  0.90550000  0.24470000  1.0 0.1203230308
H  H327  1  0.24470000  0.35890000  0.49090000  1.0 0.1203230308
H  H328  1  0.35890000  0.24470000  0.90550000  1.0 0.1203230308
H  H329  1  0.24470000  0.90550000  0.35890000  1.0 0.1203230308
H  H330  1  0.35890000  0.49090000  0.24470000  1.0 0.1203230308
H  H331  1  0.90550000  0.24470000  0.49090000  1.0 0.1203230308
H  H332  1  0.49090000  0.35890000  0.90550000  1.0 0.1203230308
H  H333  1  0.49090000  0.24470000  0.35890000  1.0 0.1203230308
H  H334  1  0.90550000  0.35890000  0.24470000  1.0 0.1203230308
H  H335  1  0.35890000  0.90550000  0.49090000  1.0 0.1203230308
H  H336  1  0.24470000  0.49090000  0.90550000  1.0 0.1203230308
H  H337  1  0.40490000  0.98690000  0.79070000  1.0 0.1203230308
H  H338  1  0.98690000  0.40490000  0.81750000  1.0 0.1203230308
H  H339  1  0.79070000  0.81750000  0.40490000  1.0 0.1203230308
H  H340  1  0.81750000  0.79070000  0.98690000  1.0 0.1203230308
H  H341  1  0.79070000  0.40490000  0.98690000  1.0 0.1203230308
H  H342  1  0.81750000  0.98690000  0.40490000  1.0 0.1203230308
H  H343  1  0.40490000  0.79070000  0.81750000  1.0 0.1203230308
H  H344  1  0.98690000  0.81750000  0.79070000  1.0 0.1203230308
H  H345  1  0.98690000  0.79070000  0.40490000  1.0 0.1203230308
H  H346  1  0.40490000  0.81750000  0.98690000  1.0 0.1203230308
H  H347  1  0.81750000  0.40490000  0.79070000  1.0 0.1203230308
H  H348  1  0.79070000  0.98690000  0.81750000  1.0 0.1203230308
H  H349  1  0.09510000  0.51310000  0.68250000  1.0 0.1203230308
H  H350  1  0.51310000  0.09510000  0.70930000  1.0 0.1203230308
H  H351  1  0.70930000  0.68250000  0.51310000  1.0 0.1203230308
H  H352  1  0.68250000  0.70930000  0.09510000  1.0 0.1203230308
H  H353  1  0.70930000  0.09510000  0.68250000  1.0 0.1203230308
H  H354  1  0.68250000  0.51310000  0.70930000  1.0 0.1203230308
H  H355  1  0.09510000  0.70930000  0.51310000  1.0 0.1203230308
H  H356  1  0.51310000  0.68250000  0.09510000  1.0 0.1203230308
H  H357  1  0.51310000  0.70930000  0.68250000  1.0 0.1203230308
H  H358  1  0.09510000  0.68250000  0.70930000  1.0 0.1203230308
H  H359  1  0.68250000  0.09510000  0.51310000  1.0 0.1203230308
H  H360  1  0.70930000  0.51310000  0.09510000  1.0 0.1203230308
H  H361  1  0.59510000  0.01310000  0.20930000  1.0 0.1203230308
H  H362  1  0.01310000  0.59510000  0.18250000  1.0 0.1203230308
H  H363  1  0.20930000  0.18250000  0.59510000  1.0 0.1203230308
H  H364  1  0.18250000  0.20930000  0.01310000  1.0 0.1203230308
H  H365  1  0.20930000  0.59510000  0.01310000  1.0 0.1203230308
H  H366  1  0.18250000  0.01310000  0.59510000  1.0 0.1203230308
H  H367  1  0.59510000  0.20930000  0.18250000  1.0 0.1203230308
H  H368  1  0.01310000  0.18250000  0.20930000  1.0 0.1203230308
H  H369  1  0.01310000  0.20930000  0.59510000  1.0 0.1203230308
H  H370  1  0.59510000  0.18250000  0.01310000  1.0 0.1203230308
H  H371  1  0.18250000  0.59510000  0.20930000  1.0 0.1203230308
H  H372  1  0.20930000  0.01310000  0.18250000  1.0 0.1203230308
H  H373  1  0.90490000  0.48690000  0.31750000  1.0 0.1203230308
H  H374  1  0.48690000  0.90490000  0.29070000  1.0 0.1203230308
H  H375  1  0.29070000  0.31750000  0.48690000  1.0 0.1203230308
H  H376  1  0.31750000  0.29070000  0.90490000  1.0 0.1203230308
H  H377  1  0.29070000  0.90490000  0.31750000  1.0 0.1203230308
H  H378  1  0.31750000  0.48690000  0.29070000  1.0 0.1203230308
H  H379  1  0.90490000  0.29070000  0.48690000  1.0 0.1203230308
H  H380  1  0.48690000  0.31750000  0.90490000  1.0 0.1203230308
H  H381  1  0.48690000  0.29070000  0.31750000  1.0 0.1203230308
H  H382  1  0.90490000  0.31750000  0.29070000  1.0 0.1203230308
H  H383  1  0.31750000  0.90490000  0.48690000  1.0 0.1203230308
H  H384  1  0.29070000  0.48690000  0.90490000  1.0 0.1203230308
H  H385  1  0.45030000  0.85330000  0.67830000  1.0 0.1300625593
H  H386  1  0.85330000  0.45030000  0.01810000  1.0 0.1300625593
H  H387  1  0.67830000  0.01810000  0.45030000  1.0 0.1300625593
H  H388  1  0.01810000  0.67830000  0.85330000  1.0 0.1300625593
H  H389  1  0.67830000  0.45030000  0.85330000  1.0 0.1300625593
H  H390  1  0.01810000  0.85330000  0.45030000  1.0 0.1300625593
H  H391  1  0.45030000  0.67830000  0.01810000  1.0 0.1300625593
H  H392  1  0.85330000  0.01810000  0.67830000  1.0 0.1300625593
H  H393  1  0.85330000  0.67830000  0.45030000  1.0 0.1300625593
H  H394  1  0.45030000  0.01810000  0.85330000  1.0 0.1300625593
H  H395  1  0.01810000  0.45030000  0.67830000  1.0 0.1300625593
H  H396  1  0.67830000  0.85330000  0.01810000  1.0 0.1300625593
H  H397  1  0.04970000  0.64670000  0.48190000  1.0 0.1300625593
H  H398  1  0.64670000  0.04970000  0.82170000  1.0 0.1300625593
H  H399  1  0.82170000  0.48190000  0.64670000  1.0 0.1300625593
H  H400  1  0.48190000  0.82170000  0.04970000  1.0 0.1300625593
H  H401  1  0.82170000  0.04970000  0.48190000  1.0 0.1300625593
H  H402  1  0.48190000  0.64670000  0.82170000  1.0 0.1300625593
H  H403  1  0.04970000  0.82170000  0.64670000  1.0 0.1300625593
H  H404  1  0.64670000  0.48190000  0.04970000  1.0 0.1300625593
H  H405  1  0.64670000  0.82170000  0.48190000  1.0 0.1300625593
H  H406  1  0.04970000  0.48190000  0.82170000  1.0 0.1300625593
H  H407  1  0.48190000  0.04970000  0.64670000  1.0 0.1300625593
H  H408  1  0.82170000  0.64670000  0.04970000  1.0 0.1300625593
H  H409  1  0.54970000  0.14670000  0.32170000  1.0 0.1300625593
H  H410  1  0.14670000  0.54970000  0.98190000  1.0 0.1300625593
H  H411  1  0.32170000  0.98190000  0.54970000  1.0 0.1300625593
H  H412  1  0.98190000  0.32170000  0.14670000  1.0 0.1300625593
H  H413  1  0.32170000  0.54970000  0.14670000  1.0 0.1300625593
H  H414  1  0.98190000  0.14670000  0.54970000  1.0 0.1300625593
H  H415  1  0.54970000  0.32170000  0.98190000  1.0 0.1300625593
H  H416  1  0.14670000  0.98190000  0.32170000  1.0 0.1300625593
H  H417  1  0.14670000  0.32170000  0.54970000  1.0 0.1300625593
H  H418  1  0.54970000  0.98190000  0.14670000  1.0 0.1300625593
H  H419  1  0.98190000  0.54970000  0.32170000  1.0 0.1300625593
H  H420  1  0.32170000  0.14670000  0.98190000  1.0 0.1300625593
H  H421  1  0.95030000  0.35330000  0.51810000  1.0 0.1300625593
H  H422  1  0.35330000  0.95030000  0.17830000  1.0 0.1300625593
H  H423  1  0.17830000  0.51810000  0.35330000  1.0 0.1300625593
H  H424  1  0.51810000  0.17830000  0.95030000  1.0 0.1300625593
H  H425  1  0.17830000  0.95030000  0.51810000  1.0 0.1300625593
H  H426  1  0.51810000  0.35330000  0.17830000  1.0 0.1300625593
H  H427  1  0.95030000  0.17830000  0.35330000  1.0 0.1300625593
H  H428  1  0.35330000  0.51810000  0.95030000  1.0 0.1300625593
H  H429  1  0.35330000  0.17830000  0.51810000  1.0 0.1300625593
H  H430  1  0.95030000  0.51810000  0.17830000  1.0 0.1300625593
H  H431  1  0.51810000  0.95030000  0.35330000  1.0 0.1300625593
H  H432  1  0.17830000  0.35330000  0.95030000  1.0 0.1300625593
C  C1  1  0.44148000  0.94346000  0.63104000  1.0 0.625658679
C  C2  1  0.94346000  0.44148000  0.98402000  1.0 0.625658679
C  C3  1  0.63104000  0.98402000  0.44148000  1.0 0.625658679
C  C4  1  0.98402000  0.63104000  0.94346000  1.0 0.625658679
C  C5  1  0.63104000  0.44148000  0.94346000  1.0 0.625658679
C  C6  1  0.98402000  0.94346000  0.44148000  1.0 0.625658679
C  C7  1  0.44148000  0.63104000  0.98402000  1.0 0.625658679
C  C8  1  0.94346000  0.98402000  0.63104000  1.0 0.625658679
C  C9  1  0.94346000  0.63104000  0.44148000  1.0 0.625658679
C  C10  1  0.44148000  0.98402000  0.94346000  1.0 0.625658679
C  C11  1  0.98402000  0.44148000  0.63104000  1.0 0.625658679
C  C12  1  0.63104000  0.94346000  0.98402000  1.0 0.625658679
C  C13  1  0.05852000  0.55654000  0.51598000  1.0 0.625658679
C  C14  1  0.55654000  0.05852000  0.86896000  1.0 0.625658679
C  C15  1  0.86896000  0.51598000  0.55654000  1.0 0.625658679
C  C16  1  0.51598000  0.86896000  0.05852000  1.0 0.625658679
C  C17  1  0.86896000  0.05852000  0.51598000  1.0 0.625658679
C  C18  1  0.51598000  0.55654000  0.86896000  1.0 0.625658679
C  C19  1  0.05852000  0.86896000  0.55654000  1.0 0.625658679
C  C20  1  0.55654000  0.51598000  0.05852000  1.0 0.625658679
C  C21  1  0.55654000  0.86896000  0.51598000  1.0 0.625658679
C  C22  1  0.05852000  0.51598000  0.86896000  1.0 0.625658679
C  C23  1  0.51598000  0.05852000  0.55654000  1.0 0.625658679
C  C24  1  0.86896000  0.55654000  0.05852000  1.0 0.625658679
C  C25  1  0.55852000  0.05654000  0.36896000  1.0 0.625658679
C  C26  1  0.05654000  0.55852000  0.01598000  1.0 0.625658679
C  C27  1  0.36896000  0.01598000  0.55852000  1.0 0.625658679
C  C28  1  0.01598000  0.36896000  0.05654000  1.0 0.625658679
C  C29  1  0.36896000  0.55852000  0.05654000  1.0 0.625658679
C  C30  1  0.01598000  0.05654000  0.55852000  1.0 0.625658679
C  C31  1  0.55852000  0.36896000  0.01598000  1.0 0.625658679
C  C32  1  0.05654000  0.01598000  0.36896000  1.0 0.625658679
C  C33  1  0.05654000  0.36896000  0.55852000  1.0 0.625658679
C  C34  1  0.55852000  0.01598000  0.05654000  1.0 0.625658679
C  C35  1  0.01598000  0.55852000  0.36896000  1.0 0.625658679
C  C36  1  0.36896000  0.05654000  0.01598000  1.0 0.625658679
C  C37  1  0.94148000  0.44346000  0.48402000  1.0 0.625658679
C  C38  1  0.44346000  0.94148000  0.13104000  1.0 0.625658679
C  C39  1  0.13104000  0.48402000  0.44346000  1.0 0.625658679
C  C40  1  0.48402000  0.13104000  0.94148000  1.0 0.625658679
C  C41  1  0.13104000  0.94148000  0.48402000  1.0 0.625658679
C  C42  1  0.48402000  0.44346000  0.13104000  1.0 0.625658679
C  C43  1  0.94148000  0.13104000  0.44346000  1.0 0.625658679
C  C44  1  0.44346000  0.48402000  0.94148000  1.0 0.625658679
C  C45  1  0.44346000  0.13104000  0.48402000  1.0 0.625658679
C  C46  1  0.94148000  0.48402000  0.13104000  1.0 0.625658679
C  C47  1  0.48402000  0.94148000  0.44346000  1.0 0.625658679
C  C48  1  0.13104000  0.44346000  0.94148000  1.0 0.625658679
C  C49  1  0.45410000  0.91276000  0.67382000  1.0 -0.0147909085
C  C50  1  0.91276000  0.45410000  0.95932000  1.0 -0.0147909085
C  C51  1  0.67382000  0.95932000  0.45410000  1.0 -0.0157502357
C  C52  1  0.95932000  0.67382000  0.91276000  1.0 -0.0157502357
C  C53  1  0.67382000  0.45410000  0.91276000  1.0 -0.0157502357
C  C54  1  0.95932000  0.91276000  0.45410000  1.0 -0.0147909085
C  C55  1  0.45410000  0.67382000  0.95932000  1.0 -0.0147909085
C  C56  1  0.91276000  0.95932000  0.67382000  1.0 -0.0157502357
C  C57  1  0.91276000  0.67382000  0.45410000  1.0 -0.0157502357
C  C58  1  0.45410000  0.95932000  0.91276000  1.0 -0.0147909085
C  C59  1  0.95932000  0.45410000  0.67382000  1.0 -0.0157502357
C  C60  1  0.67382000  0.91276000  0.95932000  1.0 -0.0157502357
C  C61  1  0.04590000  0.58724000  0.54068000  1.0 -0.0157502357
C  C62  1  0.58724000  0.04590000  0.82618000  1.0 -0.0147909085
C  C63  1  0.82618000  0.54068000  0.58724000  1.0 -0.0157502357
C  C64  1  0.54068000  0.82618000  0.04590000  1.0 -0.0147909085
C  C65  1  0.82618000  0.04590000  0.54068000  1.0 -0.0157502357
C  C66  1  0.54068000  0.58724000  0.82618000  1.0 -0.0157502357
C  C67  1  0.04590000  0.82618000  0.58724000  1.0 -0.0147909085
C  C68  1  0.58724000  0.54068000  0.04590000  1.0 -0.0157502357
C  C69  1  0.58724000  0.82618000  0.54068000  1.0 -0.0157502357
C  C70  1  0.04590000  0.54068000  0.82618000  1.0 -0.0157502357
C  C71  1  0.54068000  0.04590000  0.58724000  1.0 -0.0157502357
C  C72  1  0.82618000  0.58724000  0.04590000  1.0 -0.0147909085
C  C73  1  0.54590000  0.08724000  0.32618000  1.0 -0.0157502357
C  C74  1  0.08724000  0.54590000  0.04068000  1.0 -0.0147909085
C  C75  1  0.32618000  0.04068000  0.54590000  1.0 -0.0157502357
C  C76  1  0.04068000  0.32618000  0.08724000  1.0 -0.0157502357
C  C77  1  0.32618000  0.54590000  0.08724000  1.0 -0.0147909085
C  C78  1  0.04068000  0.08724000  0.54590000  1.0 -0.0147909085
C  C79  1  0.54590000  0.32618000  0.04068000  1.0 -0.0157502357
C  C80  1  0.08724000  0.04068000  0.32618000  1.0 -0.0157502357
C  C81  1  0.08724000  0.32618000  0.54590000  1.0 -0.0157502357
C  C82  1  0.54590000  0.04068000  0.08724000  1.0 -0.0147909085
C  C83  1  0.04068000  0.54590000  0.32618000  1.0 -0.0147909085
C  C84  1  0.32618000  0.08724000  0.04068000  1.0 -0.0157502357
C  C85  1  0.95410000  0.41276000  0.45932000  1.0 -0.0147909085
C  C86  1  0.41276000  0.95410000  0.17382000  1.0 -0.0147909085
C  C87  1  0.17382000  0.45932000  0.41276000  1.0 -0.0147909085
C  C88  1  0.45932000  0.17382000  0.95410000  1.0 -0.0157502357
C  C89  1  0.17382000  0.95410000  0.45932000  1.0 -0.0157502357
C  C90  1  0.45932000  0.41276000  0.17382000  1.0 -0.0157502357
C  C91  1  0.95410000  0.17382000  0.41276000  1.0 -0.0157502357
C  C92  1  0.41276000  0.45932000  0.95410000  1.0 -0.0147909085
C  C93  1  0.41276000  0.17382000  0.45932000  1.0 -0.0157502357
C  C94  1  0.95410000  0.45932000  0.17382000  1.0 -0.0157502357
C  C95  1  0.45932000  0.95410000  0.41276000  1.0 -0.0147909085
C  C96  1  0.17382000  0.41276000  0.95410000  1.0 -0.0157502357
C  C97  1  0.44543000  0.93299000  0.69767000  1.0 -0.1398257894
C  C98  1  0.93299000  0.44543000  0.92391000  1.0 -0.1398257894
C  C99  1  0.69767000  0.92391000  0.44543000  1.0 -0.1398257894
C  C100  1  0.92391000  0.69767000  0.93299000  1.0 -0.1398257894
C  C101  1  0.69767000  0.44543000  0.93299000  1.0 -0.1398257894
C  C102  1  0.92391000  0.93299000  0.44543000  1.0 -0.1398257894
C  C103  1  0.44543000  0.69767000  0.92391000  1.0 -0.1398257894
C  C104  1  0.93299000  0.92391000  0.69767000  1.0 -0.1398257894
C  C105  1  0.93299000  0.69767000  0.44543000  1.0 -0.1398257894
C  C106  1  0.44543000  0.92391000  0.93299000  1.0 -0.1398257894
C  C107  1  0.92391000  0.44543000  0.69767000  1.0 -0.1398257894
C  C108  1  0.69767000  0.93299000  0.92391000  1.0 -0.1398257894
C  C109  1  0.05457000  0.56701000  0.57609000  1.0 -0.1398257894
C  C110  1  0.56701000  0.05457000  0.80233000  1.0 -0.1398257894
C  C111  1  0.80233000  0.57609000  0.56701000  1.0 -0.1398257894
C  C112  1  0.57609000  0.80233000  0.05457000  1.0 -0.1398257894
C  C113  1  0.80233000  0.05457000  0.57609000  1.0 -0.1398257894
C  C114  1  0.57609000  0.56701000  0.80233000  1.0 -0.1398257894
C  C115  1  0.05457000  0.80233000  0.56701000  1.0 -0.1398257894
C  C116  1  0.56701000  0.57609000  0.05457000  1.0 -0.1398257894
C  C117  1  0.56701000  0.80233000  0.57609000  1.0 -0.1398257894
C  C118  1  0.05457000  0.57609000  0.80233000  1.0 -0.1398257894
C  C119  1  0.57609000  0.05457000  0.56701000  1.0 -0.1398257894
C  C120  1  0.80233000  0.56701000  0.05457000  1.0 -0.1398257894
C  C121  1  0.55457000  0.06701000  0.30233000  1.0 -0.1398257894
C  C122  1  0.06701000  0.55457000  0.07609000  1.0 -0.1398257894
C  C123  1  0.30233000  0.07609000  0.55457000  1.0 -0.1398257894
C  C124  1  0.07609000  0.30233000  0.06701000  1.0 -0.1398257894
C  C125  1  0.30233000  0.55457000  0.06701000  1.0 -0.1398257894
C  C126  1  0.07609000  0.06701000  0.55457000  1.0 -0.1398257894
C  C127  1  0.55457000  0.30233000  0.07609000  1.0 -0.1398257894
C  C128  1  0.06701000  0.07609000  0.30233000  1.0 -0.1398257894
C  C129  1  0.06701000  0.30233000  0.55457000  1.0 -0.1398257894
C  C130  1  0.55457000  0.07609000  0.06701000  1.0 -0.1398257894
C  C131  1  0.07609000  0.55457000  0.30233000  1.0 -0.1398257894
C  C132  1  0.30233000  0.06701000  0.07609000  1.0 -0.1398257894
C  C133  1  0.94543000  0.43299000  0.42391000  1.0 -0.1398257894
C  C134  1  0.43299000  0.94543000  0.19767000  1.0 -0.1398257894
C  C135  1  0.19767000  0.42391000  0.43299000  1.0 -0.1398257894
C  C136  1  0.42391000  0.19767000  0.94543000  1.0 -0.1398257894
C  C137  1  0.19767000  0.94543000  0.42391000  1.0 -0.1398257894
C  C138  1  0.42391000  0.43299000  0.19767000  1.0 -0.1398257894
C  C139  1  0.94543000  0.19767000  0.43299000  1.0 -0.1398257894
C  C140  1  0.43299000  0.42391000  0.94543000  1.0 -0.1398257894
C  C141  1  0.43299000  0.19767000  0.42391000  1.0 -0.1398257894
C  C142  1  0.94543000  0.42391000  0.19767000  1.0 -0.1398257894
C  C143  1  0.42391000  0.94543000  0.43299000  1.0 -0.1398257894
C  C144  1  0.19767000  0.43299000  0.94543000  1.0 -0.1398257894
C  C145  1  0.46352000  0.90664000  0.73838000  1.0 -0.0273164082
C  C146  1  0.90664000  0.46352000  0.89146000  1.0 -0.0273164082
C  C147  1  0.73838000  0.89146000  0.46352000  1.0 -0.0273164082
C  C148  1  0.89146000  0.73838000  0.90664000  1.0 -0.0273164082
C  C149  1  0.73838000  0.46352000  0.90664000  1.0 -0.0273164082
C  C150  1  0.89146000  0.90664000  0.46352000  1.0 -0.0273164082
C  C151  1  0.46352000  0.73838000  0.89146000  1.0 -0.0273164082
C  C152  1  0.90664000  0.89146000  0.73838000  1.0 -0.0273164082
C  C153  1  0.90664000  0.73838000  0.46352000  1.0 -0.0273164082
C  C154  1  0.46352000  0.89146000  0.90664000  1.0 -0.0273164082
C  C155  1  0.89146000  0.46352000  0.73838000  1.0 -0.0273164082
C  C156  1  0.73838000  0.90664000  0.89146000  1.0 -0.0273164082
C  C157  1  0.03648000  0.59336000  0.60854000  1.0 -0.0273164082
C  C158  1  0.59336000  0.03648000  0.76162000  1.0 -0.0273164082
C  C159  1  0.76162000  0.60854000  0.59336000  1.0 -0.0273164082
C  C160  1  0.60854000  0.76162000  0.03648000  1.0 -0.0273164082
C  C161  1  0.76162000  0.03648000  0.60854000  1.0 -0.0273164082
C  C162  1  0.60854000  0.59336000  0.76162000  1.0 -0.0273164082
C  C163  1  0.03648000  0.76162000  0.59336000  1.0 -0.0273164082
C  C164  1  0.59336000  0.60854000  0.03648000  1.0 -0.0273164082
C  C165  1  0.59336000  0.76162000  0.60854000  1.0 -0.0273164082
C  C166  1  0.03648000  0.60854000  0.76162000  1.0 -0.0273164082
C  C167  1  0.60854000  0.03648000  0.59336000  1.0 -0.0273164082
C  C168  1  0.76162000  0.59336000  0.03648000  1.0 -0.0273164082
C  C169  1  0.53648000  0.09336000  0.26162000  1.0 -0.0273164082
C  C170  1  0.09336000  0.53648000  0.10854000  1.0 -0.0273164082
C  C171  1  0.26162000  0.10854000  0.53648000  1.0 -0.0273164082
C  C172  1  0.10854000  0.26162000  0.09336000  1.0 -0.0273164082
C  C173  1  0.26162000  0.53648000  0.09336000  1.0 -0.0273164082
C  C174  1  0.10854000  0.09336000  0.53648000  1.0 -0.0273164082
C  C175  1  0.53648000  0.26162000  0.10854000  1.0 -0.0273164082
C  C176  1  0.09336000  0.10854000  0.26162000  1.0 -0.0273164082
C  C177  1  0.09336000  0.26162000  0.53648000  1.0 -0.0273164082
C  C178  1  0.53648000  0.10854000  0.09336000  1.0 -0.0273164082
C  C179  1  0.10854000  0.53648000  0.26162000  1.0 -0.0273164082
C  C180  1  0.26162000  0.09336000  0.10854000  1.0 -0.0273164082
C  C181  1  0.96352000  0.40664000  0.39146000  1.0 -0.0273164082
C  C182  1  0.40664000  0.96352000  0.23838000  1.0 -0.0273164082
C  C183  1  0.23838000  0.39146000  0.40664000  1.0 -0.0273164082
C  C184  1  0.39146000  0.23838000  0.96352000  1.0 -0.0273164082
C  C185  1  0.23838000  0.96352000  0.39146000  1.0 -0.0273164082
C  C186  1  0.39146000  0.40664000  0.23838000  1.0 -0.0273164082
C  C187  1  0.96352000  0.23838000  0.40664000  1.0 -0.0273164082
C  C188  1  0.40664000  0.39146000  0.96352000  1.0 -0.0273164082
C  C189  1  0.40664000  0.23838000  0.39146000  1.0 -0.0273164082
C  C190  1  0.96352000  0.39146000  0.23838000  1.0 -0.0273164082
C  C191  1  0.39146000  0.96352000  0.40664000  1.0 -0.0273164082
C  C192  1  0.23838000  0.40664000  0.96352000  1.0 -0.0273164082
C  C193  1  0.45729000  0.93243000  0.76749000  1.0 0.2058430154
C  C194  1  0.93243000  0.45729000  0.84279000  1.0 0.2058430154
C  C195  1  0.76749000  0.84279000  0.45729000  1.0 0.2058430154
C  C196  1  0.84279000  0.76749000  0.93243000  1.0 0.2058430154
C  C197  1  0.76749000  0.45729000  0.93243000  1.0 0.2058430154
C  C198  1  0.84279000  0.93243000  0.45729000  1.0 0.2058430154
C  C199  1  0.45729000  0.76749000  0.84279000  1.0 0.2058430154
C  C200  1  0.93243000  0.84279000  0.76749000  1.0 0.2058430154
C  C201  1  0.93243000  0.76749000  0.45729000  1.0 0.2058430154
C  C202  1  0.45729000  0.84279000  0.93243000  1.0 0.2058430154
C  C203  1  0.84279000  0.45729000  0.76749000  1.0 0.2058430154
C  C204  1  0.76749000  0.93243000  0.84279000  1.0 0.2058430154
C  C205  1  0.04271000  0.56757000  0.65721000  1.0 0.2058430154
C  C206  1  0.56757000  0.04271000  0.73251000  1.0 0.2058430154
C  C207  1  0.73251000  0.65721000  0.56757000  1.0 0.2058430154
C  C208  1  0.65721000  0.73251000  0.04271000  1.0 0.2058430154
C  C209  1  0.73251000  0.04271000  0.65721000  1.0 0.2058430154
C  C210  1  0.65721000  0.56757000  0.73251000  1.0 0.2058430154
C  C211  1  0.04271000  0.73251000  0.56757000  1.0 0.2058430154
C  C212  1  0.56757000  0.65721000  0.04271000  1.0 0.2058430154
C  C213  1  0.56757000  0.73251000  0.65721000  1.0 0.2058430154
C  C214  1  0.04271000  0.65721000  0.73251000  1.0 0.2058430154
C  C215  1  0.65721000  0.04271000  0.56757000  1.0 0.2058430154
C  C216  1  0.73251000  0.56757000  0.04271000  1.0 0.2058430154
C  C217  1  0.54271000  0.06757000  0.23251000  1.0 0.2058430154
C  C218  1  0.06757000  0.54271000  0.15721000  1.0 0.2058430154
C  C219  1  0.23251000  0.15721000  0.54271000  1.0 0.2058430154
C  C220  1  0.15721000  0.23251000  0.06757000  1.0 0.2058430154
C  C221  1  0.23251000  0.54271000  0.06757000  1.0 0.2058430154
C  C222  1  0.15721000  0.06757000  0.54271000  1.0 0.2058430154
C  C223  1  0.54271000  0.23251000  0.15721000  1.0 0.2058430154
C  C224  1  0.06757000  0.15721000  0.23251000  1.0 0.2058430154
C  C225  1  0.06757000  0.23251000  0.54271000  1.0 0.2058430154
C  C226  1  0.54271000  0.15721000  0.06757000  1.0 0.2058430154
C  C227  1  0.15721000  0.54271000  0.23251000  1.0 0.2058430154
C  C228  1  0.23251000  0.06757000  0.15721000  1.0 0.2058430154
C  C229  1  0.95729000  0.43243000  0.34279000  1.0 0.2058430154
C  C230  1  0.43243000  0.95729000  0.26749000  1.0 0.2058430154
C  C231  1  0.26749000  0.34279000  0.43243000  1.0 0.2058430154
C  C232  1  0.34279000  0.26749000  0.95729000  1.0 0.2058430154
C  C233  1  0.26749000  0.95729000  0.34279000  1.0 0.2058430154
C  C234  1  0.34279000  0.43243000  0.26749000  1.0 0.2058430154
C  C235  1  0.95729000  0.26749000  0.43243000  1.0 0.2058430154
C  C236  1  0.43243000  0.34279000  0.95729000  1.0 0.2058430154
C  C237  1  0.43243000  0.26749000  0.34279000  1.0 0.2058430154
C  C238  1  0.95729000  0.34279000  0.26749000  1.0 0.2058430154
C  C239  1  0.34279000  0.95729000  0.43243000  1.0 0.2058430154
C  C240  1  0.26749000  0.43243000  0.95729000  1.0 0.2058430154
C  C241  1  0.45354000  0.89004000  0.81056000  1.0 -0.038394634
C  C242  1  0.89004000  0.45354000  0.84586000  1.0 -0.038394634
C  C243  1  0.81056000  0.84586000  0.45354000  1.0 -0.038394634
C  C244  1  0.84586000  0.81056000  0.89004000  1.0 -0.038394634
C  C245  1  0.81056000  0.45354000  0.89004000  1.0 -0.038394634
C  C246  1  0.84586000  0.89004000  0.45354000  1.0 -0.038394634
C  C247  1  0.45354000  0.81056000  0.84586000  1.0 -0.038394634
C  C248  1  0.89004000  0.84586000  0.81056000  1.0 -0.038394634
C  C249  1  0.89004000  0.81056000  0.45354000  1.0 -0.038394634
C  C250  1  0.45354000  0.84586000  0.89004000  1.0 -0.038394634
C  C251  1  0.84586000  0.45354000  0.81056000  1.0 -0.038394634
C  C252  1  0.81056000  0.89004000  0.84586000  1.0 -0.038394634
C  C253  1  0.04646000  0.60996000  0.65414000  1.0 -0.038394634
C  C254  1  0.60996000  0.04646000  0.68944000  1.0 -0.038394634
C  C255  1  0.68944000  0.65414000  0.60996000  1.0 -0.038394634
C  C256  1  0.65414000  0.68944000  0.04646000  1.0 -0.038394634
C  C257  1  0.68944000  0.04646000  0.65414000  1.0 -0.038394634
C  C258  1  0.65414000  0.60996000  0.68944000  1.0 -0.038394634
C  C259  1  0.04646000  0.68944000  0.60996000  1.0 -0.038394634
C  C260  1  0.60996000  0.65414000  0.04646000  1.0 -0.038394634
C  C261  1  0.60996000  0.68944000  0.65414000  1.0 -0.038394634
C  C262  1  0.04646000  0.65414000  0.68944000  1.0 -0.038394634
C  C263  1  0.65414000  0.04646000  0.60996000  1.0 -0.038394634
C  C264  1  0.68944000  0.60996000  0.04646000  1.0 -0.038394634
C  C265  1  0.54646000  0.10996000  0.18944000  1.0 -0.038394634
C  C266  1  0.10996000  0.54646000  0.15414000  1.0 -0.038394634
C  C267  1  0.18944000  0.15414000  0.54646000  1.0 -0.038394634
C  C268  1  0.15414000  0.18944000  0.10996000  1.0 -0.038394634
C  C269  1  0.18944000  0.54646000  0.10996000  1.0 -0.038394634
C  C270  1  0.15414000  0.10996000  0.54646000  1.0 -0.038394634
C  C271  1  0.54646000  0.18944000  0.15414000  1.0 -0.038394634
C  C272  1  0.10996000  0.15414000  0.18944000  1.0 -0.038394634
C  C273  1  0.10996000  0.18944000  0.54646000  1.0 -0.038394634
C  C274  1  0.54646000  0.15414000  0.10996000  1.0 -0.038394634
C  C275  1  0.15414000  0.54646000  0.18944000  1.0 -0.038394634
C  C276  1  0.18944000  0.10996000  0.15414000  1.0 -0.038394634
C  C277  1  0.95354000  0.39004000  0.34586000  1.0 -0.038394634
C  C278  1  0.39004000  0.95354000  0.31056000  1.0 -0.038394634
C  C279  1  0.31056000  0.34586000  0.39004000  1.0 -0.038394634
C  C280  1  0.34586000  0.31056000  0.95354000  1.0 -0.038394634
C  C281  1  0.31056000  0.95354000  0.34586000  1.0 -0.038394634
C  C282  1  0.34586000  0.39004000  0.31056000  1.0 -0.038394634
C  C283  1  0.95354000  0.31056000  0.39004000  1.0 -0.038394634
C  C284  1  0.39004000  0.34586000  0.95354000  1.0 -0.038394634
C  C285  1  0.39004000  0.31056000  0.34586000  1.0 -0.038394634
C  C286  1  0.95354000  0.34586000  0.31056000  1.0 -0.038394634
C  C287  1  0.34586000  0.95354000  0.39004000  1.0 -0.038394634
C  C288  1  0.31056000  0.39004000  0.95354000  1.0 -0.038394634
C  C289  1  0.45282000  0.85004000  0.81310000  1.0 -0.038394634
C  C290  1  0.85004000  0.45282000  0.88404000  1.0 -0.038394634
C  C291  1  0.81310000  0.88404000  0.45282000  1.0 -0.038394634
C  C292  1  0.88404000  0.81310000  0.85004000  1.0 -0.038394634
C  C293  1  0.81310000  0.45282000  0.85004000  1.0 -0.038394634
C  C294  1  0.88404000  0.85004000  0.45282000  1.0 -0.038394634
C  C295  1  0.45282000  0.81310000  0.88404000  1.0 -0.038394634
C  C296  1  0.85004000  0.88404000  0.81310000  1.0 -0.038394634
C  C297  1  0.85004000  0.81310000  0.45282000  1.0 -0.038394634
C  C298  1  0.45282000  0.88404000  0.85004000  1.0 -0.038394634
C  C299  1  0.88404000  0.45282000  0.81310000  1.0 -0.038394634
C  C300  1  0.81310000  0.85004000  0.88404000  1.0 -0.038394634
C  C301  1  0.04718000  0.64996000  0.61596000  1.0 -0.038394634
C  C302  1  0.64996000  0.04718000  0.68690000  1.0 -0.038394634
C  C303  1  0.68690000  0.61596000  0.64996000  1.0 -0.038394634
C  C304  1  0.61596000  0.68690000  0.04718000  1.0 -0.038394634
C  C305  1  0.68690000  0.04718000  0.61596000  1.0 -0.038394634
C  C306  1  0.61596000  0.64996000  0.68690000  1.0 -0.038394634
C  C307  1  0.04718000  0.68690000  0.64996000  1.0 -0.038394634
C  C308  1  0.64996000  0.61596000  0.04718000  1.0 -0.038394634
C  C309  1  0.64996000  0.68690000  0.61596000  1.0 -0.038394634
C  C310  1  0.04718000  0.61596000  0.68690000  1.0 -0.038394634
C  C311  1  0.61596000  0.04718000  0.64996000  1.0 -0.038394634
C  C312  1  0.68690000  0.64996000  0.04718000  1.0 -0.038394634
C  C313  1  0.54718000  0.14996000  0.18690000  1.0 -0.038394634
C  C314  1  0.14996000  0.54718000  0.11596000  1.0 -0.038394634
C  C315  1  0.18690000  0.11596000  0.54718000  1.0 -0.038394634
C  C316  1  0.11596000  0.18690000  0.14996000  1.0 -0.038394634
C  C317  1  0.18690000  0.54718000  0.14996000  1.0 -0.038394634
C  C318  1  0.11596000  0.14996000  0.54718000  1.0 -0.038394634
C  C319  1  0.54718000  0.18690000  0.11596000  1.0 -0.038394634
C  C320  1  0.14996000  0.11596000  0.18690000  1.0 -0.038394634
C  C321  1  0.14996000  0.18690000  0.54718000  1.0 -0.038394634
C  C322  1  0.54718000  0.11596000  0.14996000  1.0 -0.038394634
C  C323  1  0.11596000  0.54718000  0.18690000  1.0 -0.038394634
C  C324  1  0.18690000  0.14996000  0.11596000  1.0 -0.038394634
C  C325  1  0.95282000  0.35004000  0.38404000  1.0 -0.038394634
C  C326  1  0.35004000  0.95282000  0.31310000  1.0 -0.038394634
C  C327  1  0.31310000  0.38404000  0.35004000  1.0 -0.038394634
C  C328  1  0.38404000  0.31310000  0.95282000  1.0 -0.038394634
C  C329  1  0.31310000  0.95282000  0.38404000  1.0 -0.038394634
C  C330  1  0.38404000  0.35004000  0.31310000  1.0 -0.038394634
C  C331  1  0.95282000  0.31310000  0.35004000  1.0 -0.038394634
C  C332  1  0.35004000  0.38404000  0.95282000  1.0 -0.038394634
C  C333  1  0.35004000  0.31310000  0.38404000  1.0 -0.038394634
C  C334  1  0.95282000  0.38404000  0.31310000  1.0 -0.038394634
C  C335  1  0.38404000  0.95282000  0.35004000  1.0 -0.038394634
C  C336  1  0.31310000  0.35004000  0.95282000  1.0 -0.038394634
C  C337  1  0.45608000  0.86684000  0.76278000  1.0 0.0285869798
C  C338  1  0.86684000  0.45608000  0.91430000  1.0 0.0285869798
C  C339  1  0.76278000  0.91430000  0.45608000  1.0 0.0285869798
C  C340  1  0.91430000  0.76278000  0.86684000  1.0 0.0285869798
C  C341  1  0.76278000  0.45608000  0.86684000  1.0 0.0285869798
C  C342  1  0.91430000  0.86684000  0.45608000  1.0 0.0285869798
C  C343  1  0.45608000  0.76278000  0.91430000  1.0 0.0285869798
C  C344  1  0.86684000  0.91430000  0.76278000  1.0 0.0285869798
C  C345  1  0.86684000  0.76278000  0.45608000  1.0 0.0285869798
C  C346  1  0.45608000  0.91430000  0.86684000  1.0 0.0285869798
C  C347  1  0.91430000  0.45608000  0.76278000  1.0 0.0285869798
C  C348  1  0.76278000  0.86684000  0.91430000  1.0 0.0285869798
C  C349  1  0.04392000  0.63316000  0.58570000  1.0 0.0285869798
C  C350  1  0.63316000  0.04392000  0.73722000  1.0 0.0285869798
C  C351  1  0.73722000  0.58570000  0.63316000  1.0 0.0285869798
C  C352  1  0.58570000  0.73722000  0.04392000  1.0 0.0285869798
C  C353  1  0.73722000  0.04392000  0.58570000  1.0 0.0285869798
C  C354  1  0.58570000  0.63316000  0.73722000  1.0 0.0285869798
C  C355  1  0.04392000  0.73722000  0.63316000  1.0 0.0285869798
C  C356  1  0.63316000  0.58570000  0.04392000  1.0 0.0285869798
C  C357  1  0.63316000  0.73722000  0.58570000  1.0 0.0285869798
C  C358  1  0.04392000  0.58570000  0.73722000  1.0 0.0285869798
C  C359  1  0.58570000  0.04392000  0.63316000  1.0 0.0285869798
C  C360  1  0.73722000  0.63316000  0.04392000  1.0 0.0285869798
C  C361  1  0.54392000  0.13316000  0.23722000  1.0 0.0285869798
C  C362  1  0.13316000  0.54392000  0.08570000  1.0 0.0285869798
C  C363  1  0.23722000  0.08570000  0.54392000  1.0 0.0285869798
C  C364  1  0.08570000  0.23722000  0.13316000  1.0 0.0285869798
C  C365  1  0.23722000  0.54392000  0.13316000  1.0 0.0285869798
C  C366  1  0.08570000  0.13316000  0.54392000  1.0 0.0285869798
C  C367  1  0.54392000  0.23722000  0.08570000  1.0 0.0285869798
C  C368  1  0.13316000  0.08570000  0.23722000  1.0 0.0285869798
C  C369  1  0.13316000  0.23722000  0.54392000  1.0 0.0285869798
C  C370  1  0.54392000  0.08570000  0.13316000  1.0 0.0285869798
C  C371  1  0.08570000  0.54392000  0.23722000  1.0 0.0285869798
C  C372  1  0.23722000  0.13316000  0.08570000  1.0 0.0285869798
C  C373  1  0.95608000  0.36684000  0.41430000  1.0 0.0285869798
C  C374  1  0.36684000  0.95608000  0.26278000  1.0 0.0285869798
C  C375  1  0.26278000  0.41430000  0.36684000  1.0 0.0285869798
C  C376  1  0.41430000  0.26278000  0.95608000  1.0 0.0285869798
C  C377  1  0.26278000  0.95608000  0.41430000  1.0 0.0285869798
C  C378  1  0.41430000  0.36684000  0.26278000  1.0 0.0285869798
C  C379  1  0.95608000  0.26278000  0.36684000  1.0 0.0285869798
C  C380  1  0.36684000  0.41430000  0.95608000  1.0 0.0285869798
C  C381  1  0.36684000  0.26278000  0.41430000  1.0 0.0285869798
C  C382  1  0.95608000  0.41430000  0.26278000  1.0 0.0285869798
C  C383  1  0.41430000  0.95608000  0.36684000  1.0 0.0285869798
C  C384  1  0.26278000  0.36684000  0.95608000  1.0 0.0285869798
C  C385  1  0.45556000  0.83236000  0.74652000  1.0 -0.2494348829
C  C386  1  0.83236000  0.45556000  0.96556000  1.0 -0.2494348829
C  C387  1  0.74652000  0.96556000  0.45556000  1.0 -0.2494348829
C  C388  1  0.96556000  0.74652000  0.83236000  1.0 -0.2494348829
C  C389  1  0.74652000  0.45556000  0.83236000  1.0 -0.2494348829
C  C390  1  0.96556000  0.83236000  0.45556000  1.0 -0.2494348829
C  C391  1  0.45556000  0.74652000  0.96556000  1.0 -0.2494348829
C  C392  1  0.83236000  0.96556000  0.74652000  1.0 -0.2494348829
C  C393  1  0.83236000  0.74652000  0.45556000  1.0 -0.2494348829
C  C394  1  0.45556000  0.96556000  0.83236000  1.0 -0.2494348829
C  C395  1  0.96556000  0.45556000  0.74652000  1.0 -0.2494348829
C  C396  1  0.74652000  0.83236000  0.96556000  1.0 -0.2494348829
C  C397  1  0.04444000  0.66764000  0.53444000  1.0 -0.2494348829
C  C398  1  0.66764000  0.04444000  0.75348000  1.0 -0.2494348829
C  C399  1  0.75348000  0.53444000  0.66764000  1.0 -0.2494348829
C  C400  1  0.53444000  0.75348000  0.04444000  1.0 -0.2494348829
C  C401  1  0.75348000  0.04444000  0.53444000  1.0 -0.2494348829
C  C402  1  0.53444000  0.66764000  0.75348000  1.0 -0.2494348829
C  C403  1  0.04444000  0.75348000  0.66764000  1.0 -0.2494348829
C  C404  1  0.66764000  0.53444000  0.04444000  1.0 -0.2494348829
C  C405  1  0.66764000  0.75348000  0.53444000  1.0 -0.2494348829
C  C406  1  0.04444000  0.53444000  0.75348000  1.0 -0.2494348829
C  C407  1  0.53444000  0.04444000  0.66764000  1.0 -0.2494348829
C  C408  1  0.75348000  0.66764000  0.04444000  1.0 -0.2494348829
C  C409  1  0.54444000  0.16764000  0.25348000  1.0 -0.2494348829
C  C410  1  0.16764000  0.54444000  0.03444000  1.0 -0.2494348829
C  C411  1  0.25348000  0.03444000  0.54444000  1.0 -0.2494348829
C  C412  1  0.03444000  0.25348000  0.16764000  1.0 -0.2494348829
C  C413  1  0.25348000  0.54444000  0.16764000  1.0 -0.2494348829
C  C414  1  0.03444000  0.16764000  0.54444000  1.0 -0.2494348829
C  C415  1  0.54444000  0.25348000  0.03444000  1.0 -0.2494348829
C  C416  1  0.16764000  0.03444000  0.25348000  1.0 -0.2494348829
C  C417  1  0.16764000  0.25348000  0.54444000  1.0 -0.2494348829
C  C418  1  0.54444000  0.03444000  0.16764000  1.0 -0.2494348829
C  C419  1  0.03444000  0.54444000  0.25348000  1.0 -0.2494348829
C  C420  1  0.25348000  0.16764000  0.03444000  1.0 -0.2494348829
C  C421  1  0.95556000  0.33236000  0.46556000  1.0 -0.2494348829
C  C422  1  0.33236000  0.95556000  0.24652000  1.0 -0.2494348829
C  C423  1  0.24652000  0.46556000  0.33236000  1.0 -0.2494348829
C  C424  1  0.46556000  0.24652000  0.95556000  1.0 -0.2494348829
C  C425  1  0.24652000  0.95556000  0.46556000  1.0 -0.2494348829
C  C426  1  0.46556000  0.33236000  0.24652000  1.0 -0.2494348829
C  C427  1  0.95556000  0.24652000  0.33236000  1.0 -0.2494348829
C  C428  1  0.33236000  0.46556000  0.95556000  1.0 -0.2494348829
C  C429  1  0.33236000  0.24652000  0.46556000  1.0 -0.2494348829
C  C430  1  0.95556000  0.46556000  0.24652000  1.0 -0.2494348829
C  C431  1  0.46556000  0.95556000  0.33236000  1.0 -0.2494348829
C  C432  1  0.24652000  0.33236000  0.95556000  1.0 -0.2494348829
C  C433  1  0.49945000  0.93677000  0.74591000  1.0 -0.4993589478
C  C434  1  0.93677000  0.49945000  0.81787000  1.0 -0.4993589478
C  C435  1  0.74591000  0.81787000  0.49945000  1.0 -0.4993589478
C  C436  1  0.81787000  0.74591000  0.93677000  1.0 -0.4993589478
C  C437  1  0.74591000  0.49945000  0.93677000  1.0 -0.4993589478
C  C438  1  0.81787000  0.93677000  0.49945000  1.0 -0.4993589478
C  C439  1  0.49945000  0.74591000  0.81787000  1.0 -0.4993589478
C  C440  1  0.93677000  0.81787000  0.74591000  1.0 -0.4993589478
C  C441  1  0.93677000  0.74591000  0.49945000  1.0 -0.4993589478
C  C442  1  0.49945000  0.81787000  0.93677000  1.0 -0.4993589478
C  C443  1  0.81787000  0.49945000  0.74591000  1.0 -0.4993589478
C  C444  1  0.74591000  0.93677000  0.81787000  1.0 -0.4993589478
C  C445  1  0.00055000  0.56323000  0.68213000  1.0 -0.4993589478
C  C446  1  0.56323000  0.00055000  0.75409000  1.0 -0.4993589478
C  C447  1  0.75409000  0.68213000  0.56323000  1.0 -0.4993589478
C  C448  1  0.68213000  0.75409000  0.00055000  1.0 -0.4993589478
C  C449  1  0.75409000  0.00055000  0.68213000  1.0 -0.4993589478
C  C450  1  0.68213000  0.56323000  0.75409000  1.0 -0.4993589478
C  C451  1  0.00055000  0.75409000  0.56323000  1.0 -0.4993589478
C  C452  1  0.56323000  0.68213000  0.00055000  1.0 -0.4993589478
C  C453  1  0.56323000  0.75409000  0.68213000  1.0 -0.4993589478
C  C454  1  0.00055000  0.68213000  0.75409000  1.0 -0.4993589478
C  C455  1  0.68213000  0.00055000  0.56323000  1.0 -0.4993589478
C  C456  1  0.75409000  0.56323000  0.00055000  1.0 -0.4993589478
C  C457  1  0.50055000  0.06323000  0.25409000  1.0 -0.4993589478
C  C458  1  0.06323000  0.50055000  0.18213000  1.0 -0.4993589478
C  C459  1  0.25409000  0.18213000  0.50055000  1.0 -0.4993589478
C  C460  1  0.18213000  0.25409000  0.06323000  1.0 -0.4993589478
C  C461  1  0.25409000  0.50055000  0.06323000  1.0 -0.4993589478
C  C462  1  0.18213000  0.06323000  0.50055000  1.0 -0.4993589478
C  C463  1  0.50055000  0.25409000  0.18213000  1.0 -0.4993589478
C  C464  1  0.06323000  0.18213000  0.25409000  1.0 -0.4993589478
C  C465  1  0.06323000  0.25409000  0.50055000  1.0 -0.4993589478
C  C466  1  0.50055000  0.18213000  0.06323000  1.0 -0.4993589478
C  C467  1  0.18213000  0.50055000  0.25409000  1.0 -0.4993589478
C  C468  1  0.25409000  0.06323000  0.18213000  1.0 -0.4993589478
C  C469  1  0.99945000  0.43677000  0.31787000  1.0 -0.4993589478
C  C470  1  0.43677000  0.99945000  0.24591000  1.0 -0.4993589478
C  C471  1  0.24591000  0.31787000  0.43677000  1.0 -0.4993589478
C  C472  1  0.31787000  0.24591000  0.99945000  1.0 -0.4993589478
C  C473  1  0.24591000  0.99945000  0.31787000  1.0 -0.4993589478
C  C474  1  0.31787000  0.43677000  0.24591000  1.0 -0.4993589478
C  C475  1  0.99945000  0.24591000  0.43677000  1.0 -0.4993589478
C  C476  1  0.43677000  0.31787000  0.99945000  1.0 -0.4993589478
C  C477  1  0.43677000  0.24591000  0.31787000  1.0 -0.4993589478
C  C478  1  0.99945000  0.31787000  0.24591000  1.0 -0.4993589478
C  C479  1  0.31787000  0.99945000  0.43677000  1.0 -0.4993589478
C  C480  1  0.24591000  0.43677000  0.99945000  1.0 -0.4993589478
C  C481  1  0.40859000  0.97017000  0.77413000  1.0 -0.4558435277
C  C482  1  0.97017000  0.40859000  0.84711000  1.0 -0.4558435277
C  C483  1  0.77413000  0.84711000  0.40859000  1.0 -0.4558435277
C  C484  1  0.84711000  0.77413000  0.97017000  1.0 -0.4558435277
C  C485  1  0.77413000  0.40859000  0.97017000  1.0 -0.4558435277
C  C486  1  0.84711000  0.97017000  0.40859000  1.0 -0.4558435277
C  C487  1  0.40859000  0.77413000  0.84711000  1.0 -0.4558435277
C  C488  1  0.97017000  0.84711000  0.77413000  1.0 -0.4558435277
C  C489  1  0.97017000  0.77413000  0.40859000  1.0 -0.4558435277
C  C490  1  0.40859000  0.84711000  0.97017000  1.0 -0.4558435277
C  C491  1  0.84711000  0.40859000  0.77413000  1.0 -0.4558435277
C  C492  1  0.77413000  0.97017000  0.84711000  1.0 -0.4558435277
C  C493  1  0.09141000  0.52983000  0.65289000  1.0 -0.4558435277
C  C494  1  0.52983000  0.09141000  0.72587000  1.0 -0.4558435277
C  C495  1  0.72587000  0.65289000  0.52983000  1.0 -0.4558435277
C  C496  1  0.65289000  0.72587000  0.09141000  1.0 -0.4558435277
C  C497  1  0.72587000  0.09141000  0.65289000  1.0 -0.4558435277
C  C498  1  0.65289000  0.52983000  0.72587000  1.0 -0.4558435277
C  C499  1  0.09141000  0.72587000  0.52983000  1.0 -0.4558435277
C  C500  1  0.52983000  0.65289000  0.09141000  1.0 -0.4558435277
C  C501  1  0.52983000  0.72587000  0.65289000  1.0 -0.4558435277
C  C502  1  0.09141000  0.65289000  0.72587000  1.0 -0.4558435277
C  C503  1  0.65289000  0.09141000  0.52983000  1.0 -0.4558435277
C  C504  1  0.72587000  0.52983000  0.09141000  1.0 -0.4558435277
C  C505  1  0.59141000  0.02983000  0.22587000  1.0 -0.4558435277
C  C506  1  0.02983000  0.59141000  0.15289000  1.0 -0.4558435277
C  C507  1  0.22587000  0.15289000  0.59141000  1.0 -0.4558435277
C  C508  1  0.15289000  0.22587000  0.02983000  1.0 -0.4558435277
C  C509  1  0.22587000  0.59141000  0.02983000  1.0 -0.4558435277
C  C510  1  0.15289000  0.02983000  0.59141000  1.0 -0.4558435277
C  C511  1  0.59141000  0.22587000  0.15289000  1.0 -0.4558435277
C  C512  1  0.02983000  0.15289000  0.22587000  1.0 -0.4558435277
C  C513  1  0.02983000  0.22587000  0.59141000  1.0 -0.4558435277
C  C514  1  0.59141000  0.15289000  0.02983000  1.0 -0.4558435277
C  C515  1  0.15289000  0.59141000  0.22587000  1.0 -0.4558435277
C  C516  1  0.22587000  0.02983000  0.15289000  1.0 -0.4558435277
C  C517  1  0.90859000  0.47017000  0.34711000  1.0 -0.4558435277
C  C518  1  0.47017000  0.90859000  0.27413000  1.0 -0.4558435277
C  C519  1  0.27413000  0.34711000  0.47017000  1.0 -0.4558435277
C  C520  1  0.34711000  0.27413000  0.90859000  1.0 -0.4558435277
C  C521  1  0.27413000  0.90859000  0.34711000  1.0 -0.4558435277
C  C522  1  0.34711000  0.47017000  0.27413000  1.0 -0.4558435277
C  C523  1  0.90859000  0.27413000  0.47017000  1.0 -0.4558435277
C  C524  1  0.47017000  0.34711000  0.90859000  1.0 -0.4558435277
C  C525  1  0.47017000  0.27413000  0.34711000  1.0 -0.4558435277
C  C526  1  0.90859000  0.34711000  0.27413000  1.0 -0.4558435277
C  C527  1  0.34711000  0.90859000  0.47017000  1.0 -0.4558435277
C  C528  1  0.27413000  0.47017000  0.90859000  1.0 -0.4558435277
C  C529  1  0.45274000  0.86484000  0.69500000  1.0 -0.1224294395
C  C530  1  0.86484000  0.45274000  0.98742000  1.0 -0.1224294395
C  C531  1  0.69500000  0.98742000  0.45274000  1.0 -0.1224294395
C  C532  1  0.98742000  0.69500000  0.86484000  1.0 -0.1224294395
C  C533  1  0.69500000  0.45274000  0.86484000  1.0 -0.1224294395
C  C534  1  0.98742000  0.86484000  0.45274000  1.0 -0.1224294395
C  C535  1  0.45274000  0.69500000  0.98742000  1.0 -0.1224294395
C  C536  1  0.86484000  0.98742000  0.69500000  1.0 -0.1224294395
C  C537  1  0.86484000  0.69500000  0.45274000  1.0 -0.1224294395
C  C538  1  0.45274000  0.98742000  0.86484000  1.0 -0.1224294395
C  C539  1  0.98742000  0.45274000  0.69500000  1.0 -0.1224294395
C  C540  1  0.69500000  0.86484000  0.98742000  1.0 -0.1224294395
C  C541  1  0.04726000  0.63516000  0.51258000  1.0 -0.1224294395
C  C542  1  0.63516000  0.04726000  0.80500000  1.0 -0.1224294395
C  C543  1  0.80500000  0.51258000  0.63516000  1.0 -0.1224294395
C  C544  1  0.51258000  0.80500000  0.04726000  1.0 -0.1224294395
C  C545  1  0.80500000  0.04726000  0.51258000  1.0 -0.1224294395
C  C546  1  0.51258000  0.63516000  0.80500000  1.0 -0.1224294395
C  C547  1  0.04726000  0.80500000  0.63516000  1.0 -0.1224294395
C  C548  1  0.63516000  0.51258000  0.04726000  1.0 -0.1224294395
C  C549  1  0.63516000  0.80500000  0.51258000  1.0 -0.1224294395
C  C550  1  0.04726000  0.51258000  0.80500000  1.0 -0.1224294395
C  C551  1  0.51258000  0.04726000  0.63516000  1.0 -0.1224294395
C  C552  1  0.80500000  0.63516000  0.04726000  1.0 -0.1224294395
C  C553  1  0.54726000  0.13516000  0.30500000  1.0 -0.1224294395
C  C554  1  0.13516000  0.54726000  0.01258000  1.0 -0.1224294395
C  C555  1  0.30500000  0.01258000  0.54726000  1.0 -0.1224294395
C  C556  1  0.01258000  0.30500000  0.13516000  1.0 -0.1224294395
C  C557  1  0.30500000  0.54726000  0.13516000  1.0 -0.1224294395
C  C558  1  0.01258000  0.13516000  0.54726000  1.0 -0.1224294395
C  C559  1  0.54726000  0.30500000  0.01258000  1.0 -0.1224294395
C  C560  1  0.13516000  0.01258000  0.30500000  1.0 -0.1224294395
C  C561  1  0.13516000  0.30500000  0.54726000  1.0 -0.1224294395
C  C562  1  0.54726000  0.01258000  0.13516000  1.0 -0.1224294395
C  C563  1  0.01258000  0.54726000  0.30500000  1.0 -0.1224294395
C  C564  1  0.30500000  0.13516000  0.01258000  1.0 -0.1224294395
C  C565  1  0.95274000  0.36484000  0.48742000  1.0 -0.1224294395
C  C566  1  0.36484000  0.95274000  0.19500000  1.0 -0.1224294395
C  C567  1  0.19500000  0.48742000  0.36484000  1.0 -0.1224294395
C  C568  1  0.48742000  0.19500000  0.95274000  1.0 -0.1224294395
C  C569  1  0.19500000  0.95274000  0.48742000  1.0 -0.1224294395
C  C570  1  0.48742000  0.36484000  0.19500000  1.0 -0.1224294395
C  C571  1  0.95274000  0.19500000  0.36484000  1.0 -0.1224294395
C  C572  1  0.36484000  0.48742000  0.95274000  1.0 -0.1224294395
C  C573  1  0.36484000  0.19500000  0.48742000  1.0 -0.1224294395
C  C574  1  0.95274000  0.48742000  0.19500000  1.0 -0.1224294395
C  C575  1  0.48742000  0.95274000  0.36484000  1.0 -0.1224294395
C  C576  1  0.19500000  0.36484000  0.95274000  1.0 -0.1224294395
O  O1  1  0.44952000  0.91816000  0.61040000  1.0 -0.6897697158
O  O2  1  0.91816000  0.44952000  0.02192000  1.0 -0.6897697158
O  O3  1  0.61040000  0.02192000  0.44952000  1.0 -0.6897697158
O  O4  1  0.02192000  0.61040000  0.91816000  1.0 -0.6897697158
O  O5  1  0.61040000  0.44952000  0.91816000  1.0 -0.6897697158
O  O6  1  0.02192000  0.91816000  0.44952000  1.0 -0.6897697158
O  O7  1  0.44952000  0.61040000  0.02192000  1.0 -0.6897697158
O  O8  1  0.91816000  0.02192000  0.61040000  1.0 -0.6897697158
O  O9  1  0.91816000  0.61040000  0.44952000  1.0 -0.6897697158
O  O10  1  0.44952000  0.02192000  0.91816000  1.0 -0.6897697158
O  O11  1  0.02192000  0.44952000  0.61040000  1.0 -0.6897697158
O  O12  1  0.61040000  0.91816000  0.02192000  1.0 -0.6897697158
O  O13  1  0.05048000  0.58184000  0.47808000  1.0 -0.6897697158
O  O14  1  0.58184000  0.05048000  0.88960000  1.0 -0.6897697158
O  O15  1  0.88960000  0.47808000  0.58184000  1.0 -0.6897697158
O  O16  1  0.47808000  0.88960000  0.05048000  1.0 -0.6897697158
O  O17  1  0.88960000  0.05048000  0.47808000  1.0 -0.6897697158
O  O18  1  0.47808000  0.58184000  0.88960000  1.0 -0.6897697158
O  O19  1  0.05048000  0.88960000  0.58184000  1.0 -0.6897697158
O  O20  1  0.58184000  0.47808000  0.05048000  1.0 -0.6897697158
O  O21  1  0.58184000  0.88960000  0.47808000  1.0 -0.6897697158
O  O22  1  0.05048000  0.47808000  0.88960000  1.0 -0.6897697158
O  O23  1  0.47808000  0.05048000  0.58184000  1.0 -0.6897697158
O  O24  1  0.88960000  0.58184000  0.05048000  1.0 -0.6897697158
O  O25  1  0.55048000  0.08184000  0.38960000  1.0 -0.6897697158
O  O26  1  0.08184000  0.55048000  0.97808000  1.0 -0.6897697158
O  O27  1  0.38960000  0.97808000  0.55048000  1.0 -0.6897697158
O  O28  1  0.97808000  0.38960000  0.08184000  1.0 -0.6897697158
O  O29  1  0.38960000  0.55048000  0.08184000  1.0 -0.6897697158
O  O30  1  0.97808000  0.08184000  0.55048000  1.0 -0.6897697158
O  O31  1  0.55048000  0.38960000  0.97808000  1.0 -0.6897697158
O  O32  1  0.08184000  0.97808000  0.38960000  1.0 -0.6897697158
O  O33  1  0.08184000  0.38960000  0.55048000  1.0 -0.6897697158
O  O34  1  0.55048000  0.97808000  0.08184000  1.0 -0.6897697158
O  O35  1  0.97808000  0.55048000  0.38960000  1.0 -0.6897697158
O  O36  1  0.38960000  0.08184000  0.97808000  1.0 -0.6897697158
O  O37  1  0.94952000  0.41816000  0.52192000  1.0 -0.6897697158
O  O38  1  0.41816000  0.94952000  0.11040000  1.0 -0.6897697158
O  O39  1  0.11040000  0.52192000  0.41816000  1.0 -0.6897697158
O  O40  1  0.52192000  0.11040000  0.94952000  1.0 -0.6897697158
O  O41  1  0.11040000  0.94952000  0.52192000  1.0 -0.6897697158
O  O42  1  0.52192000  0.41816000  0.11040000  1.0 -0.6897697158
O  O43  1  0.94952000  0.11040000  0.41816000  1.0 -0.6897697158
O  O44  1  0.41816000  0.52192000  0.94952000  1.0 -0.6897697158
O  O45  1  0.41816000  0.11040000  0.52192000  1.0 -0.6897697158
O  O46  1  0.94952000  0.52192000  0.11040000  1.0 -0.6897697158
O  O47  1  0.52192000  0.94952000  0.41816000  1.0 -0.6897697158
O  O48  1  0.11040000  0.41816000  0.94952000  1.0 -0.6897697158
O  O49  1  0.44070000  0.97910000  0.61610000  1.0 -0.5397525623
O  O50  1  0.97910000  0.44070000  0.96410000  1.0 -0.5397525623
O  O51  1  0.61610000  0.96410000  0.44070000  1.0 -0.5397525623
O  O52  1  0.96410000  0.61610000  0.97910000  1.0 -0.5397525623
O  O53  1  0.61610000  0.44070000  0.97910000  1.0 -0.5397525623
O  O54  1  0.96410000  0.97910000  0.44070000  1.0 -0.5397525623
O  O55  1  0.44070000  0.61610000  0.96410000  1.0 -0.5397525623
O  O56  1  0.97910000  0.96410000  0.61610000  1.0 -0.5397525623
O  O57  1  0.97910000  0.61610000  0.44070000  1.0 -0.5397525623
O  O58  1  0.44070000  0.96410000  0.97910000  1.0 -0.5397525623
O  O59  1  0.96410000  0.44070000  0.61610000  1.0 -0.5397525623
O  O60  1  0.61610000  0.97910000  0.96410000  1.0 -0.5397525623
O  O61  1  0.05930000  0.52090000  0.53590000  1.0 -0.5397525623
O  O62  1  0.52090000  0.05930000  0.88390000  1.0 -0.5397525623
O  O63  1  0.88390000  0.53590000  0.52090000  1.0 -0.5397525623
O  O64  1  0.53590000  0.88390000  0.05930000  1.0 -0.5397525623
O  O65  1  0.88390000  0.05930000  0.53590000  1.0 -0.5397525623
O  O66  1  0.53590000  0.52090000  0.88390000  1.0 -0.5397525623
O  O67  1  0.05930000  0.88390000  0.52090000  1.0 -0.5397525623
O  O68  1  0.52090000  0.53590000  0.05930000  1.0 -0.5397525623
O  O69  1  0.52090000  0.88390000  0.53590000  1.0 -0.5397525623
O  O70  1  0.05930000  0.53590000  0.88390000  1.0 -0.5397525623
O  O71  1  0.53590000  0.05930000  0.52090000  1.0 -0.5397525623
O  O72  1  0.88390000  0.52090000  0.05930000  1.0 -0.5397525623
O  O73  1  0.55930000  0.02090000  0.38390000  1.0 -0.5397525623
O  O74  1  0.02090000  0.55930000  0.03590000  1.0 -0.5397525623
O  O75  1  0.38390000  0.03590000  0.55930000  1.0 -0.5397525623
O  O76  1  0.03590000  0.38390000  0.02090000  1.0 -0.5397525623
O  O77  1  0.38390000  0.55930000  0.02090000  1.0 -0.5397525623
O  O78  1  0.03590000  0.02090000  0.55930000  1.0 -0.5397525623
O  O79  1  0.55930000  0.38390000  0.03590000  1.0 -0.5397525623
O  O80  1  0.02090000  0.03590000  0.38390000  1.0 -0.5397525623
O  O81  1  0.02090000  0.38390000  0.55930000  1.0 -0.5397525623
O  O82  1  0.55930000  0.03590000  0.02090000  1.0 -0.5397525623
O  O83  1  0.03590000  0.55930000  0.38390000  1.0 -0.5397525623
O  O84  1  0.38390000  0.02090000  0.03590000  1.0 -0.5397525623
O  O85  1  0.94070000  0.47910000  0.46410000  1.0 -0.5397525623
O  O86  1  0.47910000  0.94070000  0.11610000  1.0 -0.5397525623
O  O87  1  0.11610000  0.46410000  0.47910000  1.0 -0.5397525623
O  O88  1  0.46410000  0.11610000  0.94070000  1.0 -0.5397525623
O  O89  1  0.11610000  0.94070000  0.46410000  1.0 -0.5397525623
O  O90  1  0.46410000  0.47910000  0.11610000  1.0 -0.5397525623
O  O91  1  0.94070000  0.11610000  0.47910000  1.0 -0.5397525623
O  O92  1  0.47910000  0.46410000  0.94070000  1.0 -0.5397525623
O  O93  1  0.47910000  0.11610000  0.46410000  1.0 -0.5397525623
O  O94  1  0.94070000  0.46410000  0.11610000  1.0 -0.5397525623
O  O95  1  0.46410000  0.94070000  0.47910000  1.0 -0.5397525623
O  O96  1  0.11610000  0.47910000  0.94070000  1.0 -0.5397525623
