# DDEC6 charges by PACMAN v1.1 (https://github.com/mtap-research/PACMAN-charge/)
data_ZUCPEV_ASR_pacman
_symmetry_space_group_name_H-M   'P 1'
_cell_length_a   15.88860000
_cell_length_b   15.88860000
_cell_length_c   42.16900000
_cell_angle_alpha   90.00000000
_cell_angle_beta   90.00000000
_cell_angle_gamma   123.11800000
_symmetry_Int_Tables_number   1
_chemical_formula_structural   Zr3H34C68(SO2)8
_chemical_formula_sum   'Zr12 H136 C272 S32 O64'
_cell_volume   8916.07701612
_cell_formula_units_Z   4
loop_
 _symmetry_equiv_pos_site_id
 _symmetry_equiv_pos_as_xyz
  1  'x, y, z'
loop_
 _atom_site_type_symbol
 _atom_site_label
 _atom_site_symmetry_multiplicity
 _atom_site_fract_x
 _atom_site_fract_y
 _atom_site_fract_z
 _atom_site_occupancy
 _atom_site_charge
Zr  Zr1  1  0.00000000  0.00000000  0.30826000  1.0 2.155978699
Zr  Zr2  1  0.00000000  0.00000000  0.19174000  1.0 2.155978699
Zr  Zr3  1  0.00000000  0.00000000  0.69174000  1.0 2.155978699
Zr  Zr4  1  0.00000000  0.00000000  0.80826000  1.0 2.155978699
Zr  Zr5  1  0.83505000  0.83505000  0.25000000  1.0 2.1202049449
Zr  Zr6  1  0.16495000  0.16495000  0.25000000  1.0 2.1202049449
Zr  Zr7  1  0.16495000  0.16495000  0.75000000  1.0 2.1202049449
Zr  Zr8  1  0.83505000  0.83505000  0.75000000  1.0 2.1202049449
Zr  Zr9  1  0.08917000  0.91083000  0.25000000  1.0 2.4024417593
Zr  Zr10  1  0.91083000  0.08917000  0.25000000  1.0 2.4024417593
Zr  Zr11  1  0.91083000  0.08917000  0.75000000  1.0 2.4024417593
Zr  Zr12  1  0.08917000  0.91083000  0.75000000  1.0 2.4024417593
H  H1  1  0.94040000  0.80312000  0.29228000  1.0 0.3811105012
H  H2  1  0.85354000  0.76250000  0.37712000  1.0 0.1094353885
H  H3  1  0.76851000  0.65077000  0.41838000  1.0 0.1035984004
H  H4  1  0.50547000  0.55575000  0.37532000  1.0 0.1035984004
H  H5  1  0.59049000  0.66747000  0.33407000  1.0 0.1182751873
H  H6  1  0.06727000  0.86647000  0.38706000  1.0 0.129234758
H  H7  1  0.11191000  0.79795000  0.42709000  1.0 0.1094353885
H  H8  1  0.26664000  0.74366000  0.36416000  1.0 0.1182751873
H  H9  1  0.22199000  0.81217000  0.32413000  1.0 0.129234758
H  H10  1  0.06289000  0.49197000  0.40362000  1.0 0.1182751873
H  H11  1  0.03258000  0.38820000  0.36055000  1.0 0.1182751873
H  H12  1  0.32929000  0.53697000  0.34358000  1.0 0.1094353885
H  H13  1  0.35961000  0.64075000  0.38665000  1.0 0.1182751873
H  H14  1  0.82451000  0.77673000  0.38696000  1.0 0.1094353885
H  H15  1  0.71041000  0.68069000  0.42657000  1.0 0.0886847973
H  H16  1  0.48231000  0.59619000  0.36599000  1.0 0.0886847973
H  H17  1  0.59639000  0.69223000  0.32638000  1.0 0.1094353885
H  H18  1  0.05960000  0.19688000  0.29228000  1.0 0.3811105012
H  H19  1  0.14646000  0.23750000  0.37712000  1.0 0.1094353885
H  H20  1  0.23149000  0.34923000  0.41838000  1.0 0.1035984004
H  H21  1  0.49453000  0.44425000  0.37532000  1.0 0.1035984004
H  H22  1  0.40951000  0.33253000  0.33407000  1.0 0.1182751873
H  H23  1  0.93273000  0.13353000  0.38706000  1.0 0.129234758
H  H24  1  0.88809000  0.20205000  0.42709000  1.0 0.1094353885
H  H25  1  0.73336000  0.25634000  0.36416000  1.0 0.1182751873
H  H26  1  0.77801000  0.18783000  0.32413000  1.0 0.129234758
H  H27  1  0.93711000  0.50803000  0.40362000  1.0 0.1182751873
H  H28  1  0.96742000  0.61180000  0.36055000  1.0 0.1182751873
H  H29  1  0.67071000  0.46303000  0.34358000  1.0 0.1094353885
H  H30  1  0.64039000  0.35925000  0.38665000  1.0 0.1182751873
H  H31  1  0.17549000  0.22327000  0.38696000  1.0 0.1094353885
H  H32  1  0.28959000  0.31931000  0.42657000  1.0 0.0886847973
H  H33  1  0.51769000  0.40381000  0.36599000  1.0 0.0886847973
H  H34  1  0.40361000  0.30777000  0.32638000  1.0 0.1094353885
H  H35  1  0.19688000  0.05960000  0.20772000  1.0 0.3811105012
H  H36  1  0.23750000  0.14646000  0.12288000  1.0 0.1094353885
H  H37  1  0.34923000  0.23149000  0.08162000  1.0 0.1035984004
H  H38  1  0.44425000  0.49453000  0.12468000  1.0 0.1035984004
H  H39  1  0.33253000  0.40951000  0.16593000  1.0 0.1182751873
H  H40  1  0.13353000  0.93273000  0.11294000  1.0 0.129234758
H  H41  1  0.20205000  0.88809000  0.07291000  1.0 0.1094353885
H  H42  1  0.25634000  0.73336000  0.13584000  1.0 0.1182751873
H  H43  1  0.18783000  0.77801000  0.17587000  1.0 0.129234758
H  H44  1  0.50803000  0.93711000  0.09638000  1.0 0.1182751873
H  H45  1  0.61180000  0.96742000  0.13945000  1.0 0.1182751873
H  H46  1  0.46303000  0.67071000  0.15642000  1.0 0.1094353885
H  H47  1  0.35925000  0.64039000  0.11335000  1.0 0.1182751873
H  H48  1  0.22327000  0.17549000  0.11304000  1.0 0.1094353885
H  H49  1  0.31931000  0.28959000  0.07343000  1.0 0.0886847973
H  H50  1  0.40381000  0.51769000  0.13401000  1.0 0.0886847973
H  H51  1  0.30777000  0.40361000  0.17362000  1.0 0.1035984004
H  H52  1  0.80312000  0.94040000  0.20772000  1.0 0.3811105012
H  H53  1  0.76250000  0.85354000  0.12288000  1.0 0.1094353885
H  H54  1  0.65077000  0.76851000  0.08162000  1.0 0.1035984004
H  H55  1  0.55575000  0.50547000  0.12468000  1.0 0.1035984004
H  H56  1  0.66747000  0.59049000  0.16593000  1.0 0.1182751873
H  H57  1  0.86647000  0.06727000  0.11294000  1.0 0.129234758
H  H58  1  0.79795000  0.11191000  0.07291000  1.0 0.1094353885
H  H59  1  0.74366000  0.26664000  0.13584000  1.0 0.1182751873
H  H60  1  0.81217000  0.22199000  0.17587000  1.0 0.129234758
H  H61  1  0.49197000  0.06289000  0.09638000  1.0 0.1182751873
H  H62  1  0.38820000  0.03258000  0.13945000  1.0 0.1182751873
H  H63  1  0.53697000  0.32929000  0.15642000  1.0 0.1094353885
H  H64  1  0.64075000  0.35961000  0.11335000  1.0 0.1182751873
H  H65  1  0.77673000  0.82451000  0.11304000  1.0 0.1094353885
H  H66  1  0.68069000  0.71041000  0.07343000  1.0 0.0886847973
H  H67  1  0.59619000  0.48231000  0.13401000  1.0 0.0886847973
H  H68  1  0.69223000  0.59639000  0.17362000  1.0 0.1035984004
H  H69  1  0.05960000  0.19688000  0.70772000  1.0 0.3811105012
H  H70  1  0.14646000  0.23750000  0.62288000  1.0 0.1094353885
H  H71  1  0.23149000  0.34923000  0.58162000  1.0 0.1035984004
H  H72  1  0.49453000  0.44425000  0.62468000  1.0 0.1035984004
H  H73  1  0.40951000  0.33253000  0.66593000  1.0 0.1182751873
H  H74  1  0.93273000  0.13353000  0.61294000  1.0 0.129234758
H  H75  1  0.88809000  0.20205000  0.57291000  1.0 0.1094353885
H  H76  1  0.73336000  0.25634000  0.63584000  1.0 0.1182751873
H  H77  1  0.77801000  0.18783000  0.67587000  1.0 0.129234758
H  H78  1  0.93711000  0.50803000  0.59638000  1.0 0.1182751873
H  H79  1  0.96742000  0.61180000  0.63945000  1.0 0.1182751873
H  H80  1  0.67071000  0.46303000  0.65642000  1.0 0.1094353885
H  H81  1  0.64039000  0.35925000  0.61335000  1.0 0.1182751873
H  H82  1  0.17549000  0.22327000  0.61304000  1.0 0.1094353885
H  H83  1  0.28959000  0.31931000  0.57343000  1.0 0.0886847973
H  H84  1  0.51769000  0.40381000  0.63401000  1.0 0.0886847973
H  H85  1  0.40361000  0.30777000  0.67362000  1.0 0.1094353885
H  H86  1  0.94040000  0.80312000  0.70772000  1.0 0.3811105012
H  H87  1  0.85354000  0.76250000  0.62288000  1.0 0.1094353885
H  H88  1  0.76851000  0.65077000  0.58162000  1.0 0.1035984004
H  H89  1  0.50547000  0.55575000  0.62468000  1.0 0.1035984004
H  H90  1  0.59049000  0.66747000  0.66593000  1.0 0.1182751873
H  H91  1  0.06727000  0.86647000  0.61294000  1.0 0.129234758
H  H92  1  0.11191000  0.79795000  0.57291000  1.0 0.1094353885
H  H93  1  0.26664000  0.74366000  0.63584000  1.0 0.1182751873
H  H94  1  0.22199000  0.81217000  0.67587000  1.0 0.129234758
H  H95  1  0.06289000  0.49197000  0.59638000  1.0 0.1182751873
H  H96  1  0.03258000  0.38820000  0.63945000  1.0 0.1182751873
H  H97  1  0.32929000  0.53697000  0.65642000  1.0 0.1094353885
H  H98  1  0.35961000  0.64075000  0.61335000  1.0 0.1182751873
H  H99  1  0.82451000  0.77673000  0.61304000  1.0 0.1094353885
H  H100  1  0.71041000  0.68069000  0.57343000  1.0 0.0886847973
H  H101  1  0.48231000  0.59619000  0.63401000  1.0 0.0886847973
H  H102  1  0.59639000  0.69223000  0.67362000  1.0 0.1094353885
H  H103  1  0.80312000  0.94040000  0.79228000  1.0 0.3811105012
H  H104  1  0.76250000  0.85354000  0.87712000  1.0 0.1094353885
H  H105  1  0.65077000  0.76851000  0.91838000  1.0 0.1035984004
H  H106  1  0.55575000  0.50547000  0.87532000  1.0 0.1035984004
H  H107  1  0.66747000  0.59049000  0.83407000  1.0 0.1182751873
H  H108  1  0.86647000  0.06727000  0.88706000  1.0 0.129234758
H  H109  1  0.79795000  0.11191000  0.92709000  1.0 0.1094353885
H  H110  1  0.74366000  0.26664000  0.86416000  1.0 0.1182751873
H  H111  1  0.81217000  0.22199000  0.82413000  1.0 0.129234758
H  H112  1  0.49197000  0.06289000  0.90362000  1.0 0.1182751873
H  H113  1  0.38820000  0.03258000  0.86055000  1.0 0.1182751873
H  H114  1  0.53697000  0.32929000  0.84358000  1.0 0.1094353885
H  H115  1  0.64075000  0.35961000  0.88665000  1.0 0.1182751873
H  H116  1  0.77673000  0.82451000  0.88696000  1.0 0.1094353885
H  H117  1  0.68069000  0.71041000  0.92657000  1.0 0.0886847973
H  H118  1  0.59619000  0.48231000  0.86599000  1.0 0.0886847973
H  H119  1  0.69223000  0.59639000  0.82638000  1.0 0.1094353885
H  H120  1  0.19688000  0.05960000  0.79228000  1.0 0.3811105012
H  H121  1  0.23750000  0.14646000  0.87712000  1.0 0.1094353885
H  H122  1  0.34923000  0.23149000  0.91838000  1.0 0.1035984004
H  H123  1  0.44425000  0.49453000  0.87532000  1.0 0.1035984004
H  H124  1  0.33253000  0.40951000  0.83407000  1.0 0.1182751873
H  H125  1  0.13353000  0.93273000  0.88706000  1.0 0.129234758
H  H126  1  0.20205000  0.88809000  0.92709000  1.0 0.1094353885
H  H127  1  0.25634000  0.73336000  0.86416000  1.0 0.1182751873
H  H128  1  0.18783000  0.77801000  0.82413000  1.0 0.129234758
H  H129  1  0.50803000  0.93711000  0.90362000  1.0 0.1182751873
H  H130  1  0.61180000  0.96742000  0.86055000  1.0 0.1182751873
H  H131  1  0.46303000  0.67071000  0.84358000  1.0 0.1094353885
H  H132  1  0.35925000  0.64039000  0.88665000  1.0 0.1182751873
H  H133  1  0.22327000  0.17549000  0.88696000  1.0 0.1094353885
H  H134  1  0.31931000  0.28959000  0.92657000  1.0 0.0886847973
H  H135  1  0.40381000  0.51769000  0.86599000  1.0 0.0886847973
H  H136  1  0.30777000  0.40361000  0.82638000  1.0 0.1094353885
C  C1  1  0.79510000  0.80090000  0.32630000  1.0 0.1490837007
C  C2  1  0.73050000  0.72610000  0.35150000  1.0 -0.0096484362
C  C3  1  0.78380000  0.72100000  0.37680000  1.0 -0.0527152501
C  C4  1  0.73290000  0.65410000  0.40150000  1.0 -0.0894674664
C  C5  1  0.62860000  0.59220000  0.40090000  1.0 -0.0096484362
C  C6  1  0.57520000  0.59720000  0.37570000  1.0 -0.0391171076
C  C7  1  0.62610000  0.66410000  0.35100000  1.0 -0.0527152501
C  C8  1  0.57360000  0.51620000  0.42670000  1.0 -0.0894674664
C  C9  1  0.51350000  0.57390000  0.42680000  1.0 -0.0713288554
C  C10  1  0.54230000  0.45530000  0.48444000  1.0 -0.0985965636
C  C11  1  0.11410000  0.89310000  0.32580000  1.0 0.6329004362
C  C12  1  0.14020000  0.84620000  0.35163000  1.0 -0.0161078929
C  C13  1  0.10720000  0.84180000  0.38247000  1.0 -0.0985965636
C  C14  1  0.13400000  0.80080000  0.40646000  1.0 -0.1638199345
C  C15  1  0.19370000  0.76410000  0.39960000  1.0 0.0886847973
C  C16  1  0.22670000  0.76830000  0.36880000  1.0 -0.1467171826
C  C17  1  0.19990000  0.80930000  0.34477000  1.0 -0.0894674664
C  C18  1  0.22730000  0.72610000  0.42600000  1.0 -0.0643068843
C  C19  1  0.16580000  0.39480000  0.31790000  1.0 0.5316742852
C  C20  1  0.21430000  0.57670000  0.39940000  1.0 0.0886847973
C  C21  1  0.11630000  0.50090000  0.39160000  1.0 -0.1467171826
C  C22  1  0.09820000  0.43880000  0.36580000  1.0 -0.0985965636
C  C23  1  0.17790000  0.45230000  0.34780000  1.0 -0.0029825229
C  C24  1  0.27590000  0.52790000  0.35560000  1.0 -0.1719682954
C  C25  1  0.29410000  0.59010000  0.38140000  1.0 -0.1935475722
C  C26  1  0.23760000  0.64820000  0.42600000  1.0 -0.0391171076
C  C27  1  0.26870000  0.70710000  0.48423000  1.0 -0.1064857579
C  C28  1  0.79250000  0.80510000  0.32630000  1.0 0.1490837007
C  C29  1  0.72180000  0.74400000  0.35270000  1.0 -0.0161078929
C  C30  1  0.75590000  0.74050000  0.38280000  1.0 -0.0391171076
C  C31  1  0.68760000  0.68300000  0.40650000  1.0 -0.0780615827
C  C32  1  0.58510000  0.62890000  0.40020000  1.0 0.0037681622
C  C33  1  0.55090000  0.63230000  0.37020000  1.0 -0.0985965636
C  C34  1  0.61930000  0.68990000  0.34650000  1.0 -0.0391171076
C  C35  1  0.20490000  0.19910000  0.32630000  1.0 0.1490837007
C  C36  1  0.26950000  0.27390000  0.35150000  1.0 -0.0096484362
C  C37  1  0.21620000  0.27900000  0.37680000  1.0 -0.0527152501
C  C38  1  0.26710000  0.34590000  0.40150000  1.0 -0.0894674664
C  C39  1  0.37140000  0.40780000  0.40090000  1.0 -0.0096484362
C  C40  1  0.42480000  0.40280000  0.37570000  1.0 -0.0391171076
C  C41  1  0.37390000  0.33590000  0.35100000  1.0 -0.0527152501
C  C42  1  0.42640000  0.48380000  0.42670000  1.0 -0.0894674664
C  C43  1  0.48650000  0.42610000  0.42680000  1.0 -0.0713288554
C  C44  1  0.45770000  0.54470000  0.48444000  1.0 -0.0985965636
C  C45  1  0.88590000  0.10690000  0.32580000  1.0 0.6329004362
C  C46  1  0.85980000  0.15380000  0.35163000  1.0 -0.0161078929
C  C47  1  0.89280000  0.15820000  0.38247000  1.0 -0.0985965636
C  C48  1  0.86600000  0.19920000  0.40646000  1.0 -0.1638199345
C  C49  1  0.80630000  0.23590000  0.39960000  1.0 0.0886847973
C  C50  1  0.77330000  0.23170000  0.36880000  1.0 -0.1467171826
C  C51  1  0.80010000  0.19070000  0.34477000  1.0 -0.0894674664
C  C52  1  0.77270000  0.27390000  0.42600000  1.0 -0.0643068843
C  C53  1  0.83420000  0.60520000  0.31790000  1.0 0.5316742852
C  C54  1  0.78570000  0.42330000  0.39940000  1.0 0.0886847973
C  C55  1  0.88370000  0.49910000  0.39160000  1.0 -0.1467171826
C  C56  1  0.90180000  0.56120000  0.36580000  1.0 -0.0985965636
C  C57  1  0.82210000  0.54770000  0.34780000  1.0 -0.0029825229
C  C58  1  0.72410000  0.47210000  0.35560000  1.0 -0.1719682954
C  C59  1  0.70590000  0.40990000  0.38140000  1.0 -0.1935475722
C  C60  1  0.76240000  0.35180000  0.42600000  1.0 -0.0391171076
C  C61  1  0.73130000  0.29290000  0.48423000  1.0 -0.1064857579
C  C62  1  0.20750000  0.19490000  0.32630000  1.0 0.1490837007
C  C63  1  0.27820000  0.25600000  0.35270000  1.0 -0.0161078929
C  C64  1  0.24410000  0.25950000  0.38280000  1.0 -0.0391171076
C  C65  1  0.31240000  0.31700000  0.40650000  1.0 -0.0780615827
C  C66  1  0.41490000  0.37110000  0.40020000  1.0 0.0037681622
C  C67  1  0.44910000  0.36770000  0.37020000  1.0 -0.1064857579
C  C68  1  0.38070000  0.31010000  0.34650000  1.0 -0.0391171076
C  C69  1  0.19910000  0.20490000  0.17370000  1.0 0.1490837007
C  C70  1  0.27390000  0.26950000  0.14850000  1.0 -0.0096484362
C  C71  1  0.27900000  0.21620000  0.12320000  1.0 -0.0527152501
C  C72  1  0.34590000  0.26710000  0.09850000  1.0 -0.0894674664
C  C73  1  0.40780000  0.37140000  0.09910000  1.0 -0.0096484362
C  C74  1  0.40280000  0.42480000  0.12430000  1.0 -0.0391171076
C  C75  1  0.33590000  0.37390000  0.14900000  1.0 -0.0527152501
C  C76  1  0.48380000  0.42640000  0.07330000  1.0 -0.0894674664
C  C77  1  0.42610000  0.48650000  0.07320000  1.0 -0.0713288554
C  C78  1  0.54470000  0.45770000  0.01556000  1.0 -0.0985965636
C  C79  1  0.10690000  0.88590000  0.17420000  1.0 0.6329004362
C  C80  1  0.15380000  0.85980000  0.14837000  1.0 -0.0161078929
C  C81  1  0.15820000  0.89280000  0.11753000  1.0 -0.0985965636
C  C82  1  0.19920000  0.86600000  0.09354000  1.0 -0.1638199345
C  C83  1  0.23590000  0.80630000  0.10040000  1.0 0.0886847973
C  C84  1  0.23170000  0.77330000  0.13120000  1.0 -0.1467171826
C  C85  1  0.19070000  0.80010000  0.15523000  1.0 -0.0894674664
C  C86  1  0.27390000  0.77270000  0.07400000  1.0 -0.0643068843
C  C87  1  0.60520000  0.83420000  0.18210000  1.0 0.5316742852
C  C88  1  0.42330000  0.78570000  0.10060000  1.0 0.0886847973
C  C89  1  0.49910000  0.88370000  0.10840000  1.0 -0.1467171826
C  C90  1  0.56120000  0.90180000  0.13420000  1.0 -0.0985965636
C  C91  1  0.54770000  0.82210000  0.15220000  1.0 -0.0029825229
C  C92  1  0.47210000  0.72410000  0.14440000  1.0 -0.1719682954
C  C93  1  0.40990000  0.70590000  0.11860000  1.0 -0.1935475722
C  C94  1  0.35180000  0.76240000  0.07400000  1.0 -0.0391171076
C  C95  1  0.29290000  0.73130000  0.01577000  1.0 -0.1064857579
C  C96  1  0.19490000  0.20750000  0.17370000  1.0 0.1490837007
C  C97  1  0.25600000  0.27820000  0.14730000  1.0 -0.0161078929
C  C98  1  0.25950000  0.24410000  0.11720000  1.0 -0.0391171076
C  C99  1  0.31700000  0.31240000  0.09350000  1.0 -0.0780615827
C  C100  1  0.37110000  0.41490000  0.09980000  1.0 0.0037681622
C  C101  1  0.36770000  0.44910000  0.12980000  1.0 -0.1064857579
C  C102  1  0.31010000  0.38070000  0.15350000  1.0 -0.0391171076
C  C103  1  0.80090000  0.79510000  0.17370000  1.0 0.1490837007
C  C104  1  0.72610000  0.73050000  0.14850000  1.0 -0.0096484362
C  C105  1  0.72100000  0.78380000  0.12320000  1.0 -0.0527152501
C  C106  1  0.65410000  0.73290000  0.09850000  1.0 -0.0894674664
C  C107  1  0.59220000  0.62860000  0.09910000  1.0 -0.0096484362
C  C108  1  0.59720000  0.57520000  0.12430000  1.0 -0.0391171076
C  C109  1  0.66410000  0.62610000  0.14900000  1.0 -0.0527152501
C  C110  1  0.51620000  0.57360000  0.07330000  1.0 -0.0894674664
C  C111  1  0.57390000  0.51350000  0.07320000  1.0 -0.0713288554
C  C112  1  0.45530000  0.54230000  0.01556000  1.0 -0.0985965636
C  C113  1  0.89310000  0.11410000  0.17420000  1.0 0.6329004362
C  C114  1  0.84620000  0.14020000  0.14837000  1.0 -0.0161078929
C  C115  1  0.84180000  0.10720000  0.11753000  1.0 -0.0985965636
C  C116  1  0.80080000  0.13400000  0.09354000  1.0 -0.1638199345
C  C117  1  0.76410000  0.19370000  0.10040000  1.0 0.0886847973
C  C118  1  0.76830000  0.22670000  0.13120000  1.0 -0.1467171826
C  C119  1  0.80930000  0.19990000  0.15523000  1.0 -0.0894674664
C  C120  1  0.72610000  0.22730000  0.07400000  1.0 -0.0643068843
C  C121  1  0.39480000  0.16580000  0.18210000  1.0 0.5316742852
C  C122  1  0.57670000  0.21430000  0.10060000  1.0 0.0886847973
C  C123  1  0.50090000  0.11630000  0.10840000  1.0 -0.1467171826
C  C124  1  0.43880000  0.09820000  0.13420000  1.0 -0.0985965636
C  C125  1  0.45230000  0.17790000  0.15220000  1.0 -0.0029825229
C  C126  1  0.52790000  0.27590000  0.14440000  1.0 -0.1719682954
C  C127  1  0.59010000  0.29410000  0.11860000  1.0 -0.1935475722
C  C128  1  0.64820000  0.23760000  0.07400000  1.0 -0.0391171076
C  C129  1  0.70710000  0.26870000  0.01577000  1.0 -0.1064857579
C  C130  1  0.80510000  0.79250000  0.17370000  1.0 0.1490837007
C  C131  1  0.74400000  0.72180000  0.14730000  1.0 -0.0161078929
C  C132  1  0.74050000  0.75590000  0.11720000  1.0 -0.0391171076
C  C133  1  0.68300000  0.68760000  0.09350000  1.0 -0.0780615827
C  C134  1  0.62890000  0.58510000  0.09980000  1.0 0.0037681622
C  C135  1  0.63230000  0.55090000  0.12980000  1.0 -0.1064857579
C  C136  1  0.68990000  0.61930000  0.15350000  1.0 -0.0391171076
C  C137  1  0.20490000  0.19910000  0.67370000  1.0 0.1490837007
C  C138  1  0.26950000  0.27390000  0.64850000  1.0 -0.0096484362
C  C139  1  0.21620000  0.27900000  0.62320000  1.0 -0.0527152501
C  C140  1  0.26710000  0.34590000  0.59850000  1.0 -0.0894674664
C  C141  1  0.37140000  0.40780000  0.59910000  1.0 -0.0096484362
C  C142  1  0.42480000  0.40280000  0.62430000  1.0 -0.0391171076
C  C143  1  0.37390000  0.33590000  0.64900000  1.0 -0.0527152501
C  C144  1  0.42640000  0.48380000  0.57330000  1.0 -0.0894674664
C  C145  1  0.48650000  0.42610000  0.57320000  1.0 -0.0713288554
C  C146  1  0.45770000  0.54470000  0.51556000  1.0 -0.0985965636
C  C147  1  0.88590000  0.10690000  0.67420000  1.0 0.6329004362
C  C148  1  0.85980000  0.15380000  0.64837000  1.0 -0.0161078929
C  C149  1  0.89280000  0.15820000  0.61753000  1.0 -0.0985965636
C  C150  1  0.86600000  0.19920000  0.59354000  1.0 -0.1638199345
C  C151  1  0.80630000  0.23590000  0.60040000  1.0 0.0886847973
C  C152  1  0.77330000  0.23170000  0.63120000  1.0 -0.1467171826
C  C153  1  0.80010000  0.19070000  0.65523000  1.0 -0.0894674664
C  C154  1  0.77270000  0.27390000  0.57400000  1.0 -0.0643068843
C  C155  1  0.83420000  0.60520000  0.68210000  1.0 0.5316742852
C  C156  1  0.78570000  0.42330000  0.60060000  1.0 0.0886847973
C  C157  1  0.88370000  0.49910000  0.60840000  1.0 -0.1467171826
C  C158  1  0.90180000  0.56120000  0.63420000  1.0 -0.0985965636
C  C159  1  0.82210000  0.54770000  0.65220000  1.0 -0.0029825229
C  C160  1  0.72410000  0.47210000  0.64440000  1.0 -0.1719682954
C  C161  1  0.70590000  0.40990000  0.61860000  1.0 -0.1935475722
C  C162  1  0.76240000  0.35180000  0.57400000  1.0 -0.0391171076
C  C163  1  0.73130000  0.29290000  0.51577000  1.0 -0.1064857579
C  C164  1  0.20750000  0.19490000  0.67370000  1.0 0.1490837007
C  C165  1  0.27820000  0.25600000  0.64730000  1.0 -0.0161078929
C  C166  1  0.24410000  0.25950000  0.61720000  1.0 -0.0391171076
C  C167  1  0.31240000  0.31700000  0.59350000  1.0 -0.0780615827
C  C168  1  0.41490000  0.37110000  0.59980000  1.0 0.0037681622
C  C169  1  0.44910000  0.36770000  0.62980000  1.0 -0.0985965636
C  C170  1  0.38070000  0.31010000  0.65350000  1.0 -0.0391171076
C  C171  1  0.79510000  0.80090000  0.67370000  1.0 0.1490837007
C  C172  1  0.73050000  0.72610000  0.64850000  1.0 -0.0096484362
C  C173  1  0.78380000  0.72100000  0.62320000  1.0 -0.0527152501
C  C174  1  0.73290000  0.65410000  0.59850000  1.0 -0.0894674664
C  C175  1  0.62860000  0.59220000  0.59910000  1.0 -0.0096484362
C  C176  1  0.57520000  0.59720000  0.62430000  1.0 -0.0391171076
C  C177  1  0.62610000  0.66410000  0.64900000  1.0 -0.0527152501
C  C178  1  0.57360000  0.51620000  0.57330000  1.0 -0.0894674664
C  C179  1  0.51350000  0.57390000  0.57320000  1.0 -0.0713288554
C  C180  1  0.54230000  0.45530000  0.51556000  1.0 -0.0985965636
C  C181  1  0.11410000  0.89310000  0.67420000  1.0 0.6329004362
C  C182  1  0.14020000  0.84620000  0.64837000  1.0 -0.0161078929
C  C183  1  0.10720000  0.84180000  0.61753000  1.0 -0.0985965636
C  C184  1  0.13400000  0.80080000  0.59354000  1.0 -0.1638199345
C  C185  1  0.19370000  0.76410000  0.60040000  1.0 0.0886847973
C  C186  1  0.22670000  0.76830000  0.63120000  1.0 -0.1467171826
C  C187  1  0.19990000  0.80930000  0.65523000  1.0 -0.0894674664
C  C188  1  0.22730000  0.72610000  0.57400000  1.0 -0.0643068843
C  C189  1  0.16580000  0.39480000  0.68210000  1.0 0.5316742852
C  C190  1  0.21430000  0.57670000  0.60060000  1.0 0.0886847973
C  C191  1  0.11630000  0.50090000  0.60840000  1.0 -0.1467171826
C  C192  1  0.09820000  0.43880000  0.63420000  1.0 -0.0985965636
C  C193  1  0.17790000  0.45230000  0.65220000  1.0 -0.0029825229
C  C194  1  0.27590000  0.52790000  0.64440000  1.0 -0.1719682954
C  C195  1  0.29410000  0.59010000  0.61860000  1.0 -0.1935475722
C  C196  1  0.23760000  0.64820000  0.57400000  1.0 -0.0391171076
C  C197  1  0.26870000  0.70710000  0.51577000  1.0 -0.1064857579
C  C198  1  0.79250000  0.80510000  0.67370000  1.0 0.1490837007
C  C199  1  0.72180000  0.74400000  0.64730000  1.0 -0.0161078929
C  C200  1  0.75590000  0.74050000  0.61720000  1.0 -0.0391171076
C  C201  1  0.68760000  0.68300000  0.59350000  1.0 -0.0780615827
C  C202  1  0.58510000  0.62890000  0.59980000  1.0 0.0037681622
C  C203  1  0.55090000  0.63230000  0.62980000  1.0 -0.0985965636
C  C204  1  0.61930000  0.68990000  0.65350000  1.0 -0.0391171076
C  C205  1  0.80090000  0.79510000  0.82630000  1.0 0.1490837007
C  C206  1  0.72610000  0.73050000  0.85150000  1.0 -0.0096484362
C  C207  1  0.72100000  0.78380000  0.87680000  1.0 -0.0527152501
C  C208  1  0.65410000  0.73290000  0.90150000  1.0 -0.0894674664
C  C209  1  0.59220000  0.62860000  0.90090000  1.0 -0.0096484362
C  C210  1  0.59720000  0.57520000  0.87570000  1.0 -0.0391171076
C  C211  1  0.66410000  0.62610000  0.85100000  1.0 -0.0527152501
C  C212  1  0.51620000  0.57360000  0.92670000  1.0 -0.0894674664
C  C213  1  0.57390000  0.51350000  0.92680000  1.0 -0.0713288554
C  C214  1  0.45530000  0.54230000  0.98444000  1.0 -0.0985965636
C  C215  1  0.89310000  0.11410000  0.82580000  1.0 0.6329004362
C  C216  1  0.84620000  0.14020000  0.85163000  1.0 -0.0161078929
C  C217  1  0.84180000  0.10720000  0.88247000  1.0 -0.0985965636
C  C218  1  0.80080000  0.13400000  0.90646000  1.0 -0.1638199345
C  C219  1  0.76410000  0.19370000  0.89960000  1.0 0.0886847973
C  C220  1  0.76830000  0.22670000  0.86880000  1.0 -0.1467171826
C  C221  1  0.80930000  0.19990000  0.84477000  1.0 -0.0894674664
C  C222  1  0.72610000  0.22730000  0.92600000  1.0 -0.0643068843
C  C223  1  0.39480000  0.16580000  0.81790000  1.0 0.5316742852
C  C224  1  0.57670000  0.21430000  0.89940000  1.0 0.0886847973
C  C225  1  0.50090000  0.11630000  0.89160000  1.0 -0.1467171826
C  C226  1  0.43880000  0.09820000  0.86580000  1.0 -0.0985965636
C  C227  1  0.45230000  0.17790000  0.84780000  1.0 -0.0029825229
C  C228  1  0.52790000  0.27590000  0.85560000  1.0 -0.1719682954
C  C229  1  0.59010000  0.29410000  0.88140000  1.0 -0.1935475722
C  C230  1  0.64820000  0.23760000  0.92600000  1.0 -0.0391171076
C  C231  1  0.70710000  0.26870000  0.98423000  1.0 -0.1064857579
C  C232  1  0.80510000  0.79250000  0.82630000  1.0 0.1490837007
C  C233  1  0.74400000  0.72180000  0.85270000  1.0 -0.0161078929
C  C234  1  0.74050000  0.75590000  0.88280000  1.0 -0.0391171076
C  C235  1  0.68300000  0.68760000  0.90650000  1.0 -0.0780615827
C  C236  1  0.62890000  0.58510000  0.90020000  1.0 0.0037681622
C  C237  1  0.63230000  0.55090000  0.87020000  1.0 -0.0985965636
C  C238  1  0.68990000  0.61930000  0.84650000  1.0 -0.0391171076
C  C239  1  0.19910000  0.20490000  0.82630000  1.0 0.1490837007
C  C240  1  0.27390000  0.26950000  0.85150000  1.0 -0.0096484362
C  C241  1  0.27900000  0.21620000  0.87680000  1.0 -0.0527152501
C  C242  1  0.34590000  0.26710000  0.90150000  1.0 -0.0894674664
C  C243  1  0.40780000  0.37140000  0.90090000  1.0 -0.0096484362
C  C244  1  0.40280000  0.42480000  0.87570000  1.0 -0.0391171076
C  C245  1  0.33590000  0.37390000  0.85100000  1.0 -0.0527152501
C  C246  1  0.48380000  0.42640000  0.92670000  1.0 -0.0894674664
C  C247  1  0.42610000  0.48650000  0.92680000  1.0 -0.0713288554
C  C248  1  0.54470000  0.45770000  0.98444000  1.0 -0.0985965636
C  C249  1  0.10690000  0.88590000  0.82580000  1.0 0.6329004362
C  C250  1  0.15380000  0.85980000  0.85163000  1.0 -0.0161078929
C  C251  1  0.15820000  0.89280000  0.88247000  1.0 -0.0985965636
C  C252  1  0.19920000  0.86600000  0.90646000  1.0 -0.1638199345
C  C253  1  0.23590000  0.80630000  0.89960000  1.0 0.0886847973
C  C254  1  0.23170000  0.77330000  0.86880000  1.0 -0.1467171826
C  C255  1  0.19070000  0.80010000  0.84477000  1.0 -0.0894674664
C  C256  1  0.27390000  0.77270000  0.92600000  1.0 -0.0643068843
C  C257  1  0.60520000  0.83420000  0.81790000  1.0 0.5316742852
C  C258  1  0.42330000  0.78570000  0.89940000  1.0 0.0886847973
C  C259  1  0.49910000  0.88370000  0.89160000  1.0 -0.1467171826
C  C260  1  0.56120000  0.90180000  0.86580000  1.0 -0.0985965636
C  C261  1  0.54770000  0.82210000  0.84780000  1.0 -0.0029825229
C  C262  1  0.47210000  0.72410000  0.85560000  1.0 -0.1719682954
C  C263  1  0.40990000  0.70590000  0.88140000  1.0 -0.1935475722
C  C264  1  0.35180000  0.76240000  0.92600000  1.0 -0.0391171076
C  C265  1  0.29290000  0.73130000  0.98423000  1.0 -0.1064857579
C  C266  1  0.19490000  0.20750000  0.82630000  1.0 0.1490837007
C  C267  1  0.25600000  0.27820000  0.85270000  1.0 -0.0161078929
C  C268  1  0.25950000  0.24410000  0.88280000  1.0 -0.0391171076
C  C269  1  0.31700000  0.31240000  0.90650000  1.0 -0.0780615827
C  C270  1  0.37110000  0.41490000  0.90020000  1.0 0.0037681622
C  C271  1  0.36770000  0.44910000  0.87020000  1.0 -0.0985965636
C  C272  1  0.31010000  0.38070000  0.84650000  1.0 -0.0391171076
S  S1  1  0.63510000  0.55290000  0.46322000  1.0 0.0771680621
S  S2  1  0.55120000  0.64020000  0.46264000  1.0 0.0886847973
S  S3  1  0.25575000  0.79205000  0.46198000  1.0 0.0580160625
S  S4  1  0.28125000  0.62395000  0.46077000  1.0 0.0580160625
S  S5  1  0.36490000  0.44710000  0.46322000  1.0 0.0771680621
S  S6  1  0.44880000  0.35980000  0.46264000  1.0 0.0886847973
S  S7  1  0.74425000  0.20795000  0.46198000  1.0 0.0580160625
S  S8  1  0.71875000  0.37605000  0.46077000  1.0 0.0580160625
S  S9  1  0.44710000  0.36490000  0.03678000  1.0 0.0771680621
S  S10  1  0.35980000  0.44880000  0.03736000  1.0 0.0886847973
S  S11  1  0.20795000  0.74425000  0.03802000  1.0 0.0580160625
S  S12  1  0.37605000  0.71875000  0.03923000  1.0 0.0580160625
S  S13  1  0.55290000  0.63510000  0.03678000  1.0 0.0771680621
S  S14  1  0.64020000  0.55120000  0.03736000  1.0 0.0886847973
S  S15  1  0.79205000  0.25575000  0.03802000  1.0 0.0580160625
S  S16  1  0.62395000  0.28125000  0.03923000  1.0 0.0580160625
S  S17  1  0.36490000  0.44710000  0.53678000  1.0 0.0771680621
S  S18  1  0.44880000  0.35980000  0.53736000  1.0 0.0886847973
S  S19  1  0.74425000  0.20795000  0.53802000  1.0 0.0580160625
S  S20  1  0.71875000  0.37605000  0.53923000  1.0 0.0580160625
S  S21  1  0.63510000  0.55290000  0.53678000  1.0 0.0771680621
S  S22  1  0.55120000  0.64020000  0.53736000  1.0 0.0886847973
S  S23  1  0.25575000  0.79205000  0.53802000  1.0 0.0580160625
S  S24  1  0.28125000  0.62395000  0.53923000  1.0 0.0580160625
S  S25  1  0.55290000  0.63510000  0.96322000  1.0 0.0771680621
S  S26  1  0.64020000  0.55120000  0.96264000  1.0 0.0886847973
S  S27  1  0.79205000  0.25575000  0.96198000  1.0 0.0580160625
S  S28  1  0.62395000  0.28125000  0.96077000  1.0 0.0580160625
S  S29  1  0.44710000  0.36490000  0.96322000  1.0 0.0771680621
S  S30  1  0.35980000  0.44880000  0.96264000  1.0 0.0886847973
S  S31  1  0.20795000  0.74425000  0.96198000  1.0 0.0580160625
S  S32  1  0.37605000  0.71875000  0.96077000  1.0 0.0580160625
O  O1  1  0.95500000  0.85180000  0.28124000  1.0 -1.0208003328
O  O2  1  0.96860000  0.89300000  0.22543000  1.0 -1.1578866348
O  O3  1  0.87570000  0.87710000  0.33481000  1.0 -0.4076422837
O  O4  1  0.76120000  0.77820000  0.29890000  1.0 -0.4076422837
O  O5  1  0.06800000  0.93200000  0.33496000  1.0 -0.5972909436
O  O6  1  0.13530000  0.88530000  0.29794000  1.0 -0.6270644174
O  O7  1  0.07920000  0.31720000  0.31430000  1.0 -0.5414481268
O  O8  1  0.23580000  0.42520000  0.29860000  1.0 -0.5414481268
O  O9  1  0.04500000  0.14820000  0.28124000  1.0 -1.0208003328
O  O10  1  0.03140000  0.10700000  0.22543000  1.0 -1.1578866348
O  O11  1  0.12430000  0.12290000  0.33481000  1.0 -0.4076422837
O  O12  1  0.23880000  0.22180000  0.29890000  1.0 -0.4076422837
O  O13  1  0.93200000  0.06800000  0.33496000  1.0 -0.5972909436
O  O14  1  0.86470000  0.11470000  0.29794000  1.0 -0.6270644174
O  O15  1  0.92080000  0.68280000  0.31430000  1.0 -0.5414481268
O  O16  1  0.76420000  0.57480000  0.29860000  1.0 -0.5414481268
O  O17  1  0.14820000  0.04500000  0.21876000  1.0 -1.0208003328
O  O18  1  0.10700000  0.03140000  0.27457000  1.0 -1.1578866348
O  O19  1  0.12290000  0.12430000  0.16519000  1.0 -0.4076422837
O  O20  1  0.22180000  0.23880000  0.20110000  1.0 -0.4076422837
O  O21  1  0.06800000  0.93200000  0.16504000  1.0 -0.5972909436
O  O22  1  0.11470000  0.86470000  0.20206000  1.0 -0.6270644174
O  O23  1  0.68280000  0.92080000  0.18570000  1.0 -0.5414481268
O  O24  1  0.57480000  0.76420000  0.20140000  1.0 -0.5414481268
O  O25  1  0.85180000  0.95500000  0.21876000  1.0 -1.0208003328
O  O26  1  0.89300000  0.96860000  0.27457000  1.0 -1.1578866348
O  O27  1  0.87710000  0.87570000  0.16519000  1.0 -0.4076422837
O  O28  1  0.77820000  0.76120000  0.20110000  1.0 -0.4076422837
O  O29  1  0.93200000  0.06800000  0.16504000  1.0 -0.5972909436
O  O30  1  0.88530000  0.13530000  0.20206000  1.0 -0.6270644174
O  O31  1  0.31720000  0.07920000  0.18570000  1.0 -0.5414481268
O  O32  1  0.42520000  0.23580000  0.20140000  1.0 -0.5414481268
O  O33  1  0.04500000  0.14820000  0.71876000  1.0 -1.0208003328
O  O34  1  0.03140000  0.10700000  0.77457000  1.0 -1.1578866348
O  O35  1  0.12430000  0.12290000  0.66519000  1.0 -0.4076422837
O  O36  1  0.23880000  0.22180000  0.70110000  1.0 -0.4076422837
O  O37  1  0.93200000  0.06800000  0.66504000  1.0 -0.5972909436
O  O38  1  0.86470000  0.11470000  0.70206000  1.0 -0.6270644174
O  O39  1  0.92080000  0.68280000  0.68570000  1.0 -0.5414481268
O  O40  1  0.76420000  0.57480000  0.70140000  1.0 -0.5414481268
O  O41  1  0.95500000  0.85180000  0.71876000  1.0 -1.0208003328
O  O42  1  0.96860000  0.89300000  0.77457000  1.0 -1.1578866348
O  O43  1  0.87570000  0.87710000  0.66519000  1.0 -0.4076422837
O  O44  1  0.76120000  0.77820000  0.70110000  1.0 -0.4076422837
O  O45  1  0.06800000  0.93200000  0.66504000  1.0 -0.5972909436
O  O46  1  0.13530000  0.88530000  0.70206000  1.0 -0.6270644174
O  O47  1  0.07920000  0.31720000  0.68570000  1.0 -0.5414481268
O  O48  1  0.23580000  0.42520000  0.70140000  1.0 -0.5414481268
O  O49  1  0.85180000  0.95500000  0.78124000  1.0 -1.0208003328
O  O50  1  0.89300000  0.96860000  0.72543000  1.0 -1.1578866348
O  O51  1  0.87710000  0.87570000  0.83481000  1.0 -0.4076422837
O  O52  1  0.77820000  0.76120000  0.79890000  1.0 -0.4076422837
O  O53  1  0.93200000  0.06800000  0.83496000  1.0 -0.5972909436
O  O54  1  0.88530000  0.13530000  0.79794000  1.0 -0.6270644174
O  O55  1  0.31720000  0.07920000  0.81430000  1.0 -0.5414481268
O  O56  1  0.42520000  0.23580000  0.79860000  1.0 -0.5414481268
O  O57  1  0.14820000  0.04500000  0.78124000  1.0 -1.0208003328
O  O58  1  0.10700000  0.03140000  0.72543000  1.0 -1.1578866348
O  O59  1  0.12290000  0.12430000  0.83481000  1.0 -0.4076422837
O  O60  1  0.22180000  0.23880000  0.79890000  1.0 -0.4076422837
O  O61  1  0.06800000  0.93200000  0.83496000  1.0 -0.5972909436
O  O62  1  0.11470000  0.86470000  0.79794000  1.0 -0.6270644174
O  O63  1  0.68280000  0.92080000  0.81430000  1.0 -0.5414481268
O  O64  1  0.57480000  0.76420000  0.79860000  1.0 -0.5414481268
