# DDEC6 charges by PACMAN v1.1 (https://github.com/mtap-research/PACMAN-charge/)
data_ZUDXAZ_ASR_pacman
_symmetry_space_group_name_H-M   'P 1'
_cell_length_a   6.66870000
_cell_length_b   12.24500000
_cell_length_c   9.03050000
_cell_angle_alpha   90.00000000
_cell_angle_beta   110.43900000
_cell_angle_gamma   90.00000000
_symmetry_Int_Tables_number   1
_chemical_formula_structural   Fe5H8C4(N5F2)4
_chemical_formula_sum   'Fe5 H8 C4 N20 F8'
_cell_volume   690.99035606
_cell_formula_units_Z   1
loop_
 _symmetry_equiv_pos_site_id
 _symmetry_equiv_pos_as_xyz
  1  'x, y, z'
loop_
 _atom_site_type_symbol
 _atom_site_label
 _atom_site_symmetry_multiplicity
 _atom_site_fract_x
 _atom_site_fract_y
 _atom_site_fract_z
 _atom_site_occupancy
 _atom_site_charge
Fe  Fe1  1  0.50000000  0.00000000  0.00000000  1.0 0.7108744624
Fe  Fe2  1  0.00000000  0.00000000  0.00000000  1.0 0.7943852785
Fe  Fe3  1  0.50000000  0.63407000  0.50000000  1.0 1.0704808476
Fe  Fe4  1  0.50000000  0.36593000  0.50000000  1.0 1.0704808476
Fe  Fe5  1  0.00000000  0.50000000  0.50000000  1.0 1.4989480021
H  H1  1  0.12100000  0.79890000  0.78150000  1.0 0.3156174662
H  H2  1  0.87900000  0.79890000  0.21850000  1.0 0.3142721596
H  H3  1  0.87900000  0.20110000  0.21850000  1.0 0.3142721596
H  H4  1  0.12100000  0.20110000  0.78150000  1.0 0.3156174662
H  H5  1  0.00070000  0.71600000  0.66300000  1.0 0.3273529502
H  H6  1  0.99930000  0.71600000  0.33700000  1.0 0.3273529502
H  H7  1  0.99930000  0.28400000  0.33700000  1.0 0.3273529502
H  H8  1  0.00070000  0.28400000  0.66300000  1.0 0.3273529502
C  C1  1  0.79600000  0.79820000  0.75750000  1.0 0.4642926621
C  C2  1  0.20400000  0.79820000  0.24250000  1.0 0.4642926621
C  C3  1  0.20400000  0.20180000  0.24250000  1.0 0.4642926621
C  C4  1  0.79600000  0.20180000  0.75750000  1.0 0.4642926621
N  N1  1  0.58200000  0.87660000  0.85320000  1.0 -0.0586064357
N  N2  1  0.41800000  0.87660000  0.14680000  1.0 -0.0586064357
N  N3  1  0.41800000  0.12340000  0.14680000  1.0 -0.0586064357
N  N4  1  0.58200000  0.12340000  0.85320000  1.0 -0.0586064357
N  N5  1  0.79100000  0.87520000  0.85940000  1.0 -0.3032973466
N  N6  1  0.20900000  0.87520000  0.14060000  1.0 -0.3032973466
N  N7  1  0.20900000  0.12480000  0.14060000  1.0 -0.3032973466
N  N8  1  0.79100000  0.12480000  0.85940000  1.0 -0.3032973466
N  N9  1  0.47800000  0.80360000  0.75110000  1.0 -0.0222151746
N  N10  1  0.52200000  0.80360000  0.24890000  1.0 -0.0222151746
N  N11  1  0.52200000  0.19640000  0.24890000  1.0 -0.0222151746
N  N12  1  0.47800000  0.19640000  0.75110000  1.0 -0.0222151746
N  N13  1  0.60100000  0.75210000  0.68730000  1.0 -0.3229607252
N  N14  1  0.39900000  0.75210000  0.31270000  1.0 -0.3229607252
N  N15  1  0.39900000  0.24790000  0.31270000  1.0 -0.3229607252
N  N16  1  0.60100000  0.24790000  0.68730000  1.0 -0.3229607252
N  N17  1  0.00290000  0.76640000  0.73000000  1.0 -0.608154094
N  N18  1  0.99710000  0.76640000  0.27000000  1.0 -0.608154094
N  N19  1  0.99710000  0.23360000  0.27000000  1.0 -0.608154094
N  N20  1  0.00290000  0.23360000  0.73000000  1.0 -0.608154094
F  F1  1  0.81000000  0.00000000  0.13610000  1.0 -0.4961791394
F  F2  1  0.19000000  0.00000000  0.86390000  1.0 -0.4961791394
F  F3  1  0.79590000  0.61580000  0.47940000  1.0 -0.545614129
F  F4  1  0.20410000  0.61580000  0.52060000  1.0 -0.545614129
F  F5  1  0.20410000  0.38420000  0.52060000  1.0 -0.545614129
F  F6  1  0.79590000  0.38420000  0.47940000  1.0 -0.545614129
F  F7  1  0.41300000  0.50000000  0.33940000  1.0 -0.56789062
F  F8  1  0.58700000  0.50000000  0.66060000  1.0 -0.56789062
