# DDEC6 charges by PACMAN v1.1 (https://github.com/mtap-research/PACMAN-charge/)
data_ZUMKUQ_FSR_pacman
_symmetry_space_group_name_H-M   'P 1'
_cell_length_a   14.65160000
_cell_length_b   20.14900000
_cell_length_c   26.59190000
_cell_angle_alpha   90.00000000
_cell_angle_beta   118.84800000
_cell_angle_gamma   90.00000000
_symmetry_Int_Tables_number   1
_chemical_formula_structural   Co3H43C57N5O14
_chemical_formula_sum   'Co12 H172 C228 N20 O56'
_cell_volume   6876.12596316
_cell_formula_units_Z   4
loop_
 _symmetry_equiv_pos_site_id
 _symmetry_equiv_pos_as_xyz
  1  'x, y, z'
loop_
 _atom_site_type_symbol
 _atom_site_label
 _atom_site_symmetry_multiplicity
 _atom_site_fract_x
 _atom_site_fract_y
 _atom_site_fract_z
 _atom_site_occupancy
 _atom_site_charge
Co  Co1  1  0.54739000  0.98694000  0.36833000  1.0 0.8861334946
Co  Co2  1  0.67334000  0.69039000  0.90441000  1.0 1.0561822977
Co  Co3  1  0.53388000  0.84311000  0.86637000  1.0 0.9503667679
Co  Co4  1  0.54739000  0.51306000  0.86833000  1.0 0.8861334946
Co  Co5  1  0.67334000  0.80961000  0.40441000  1.0 1.0561822977
Co  Co6  1  0.53388000  0.65689000  0.36637000  1.0 0.9503667679
Co  Co7  1  0.45261000  0.48694000  0.13167000  1.0 0.8861334946
Co  Co8  1  0.32666000  0.19039000  0.59559000  1.0 1.0561822977
Co  Co9  1  0.46612000  0.34311000  0.63363000  1.0 0.9503667679
Co  Co10  1  0.45261000  0.01306000  0.63167000  1.0 0.8861334946
Co  Co11  1  0.32666000  0.30961000  0.09559000  1.0 1.0561822977
Co  Co12  1  0.46612000  0.15689000  0.13363000  1.0 0.9503667679
H  H1  1  0.87642000  0.75960000  0.84505000  1.0 0.1208026432
H  H2  1  0.63463000  0.83100000  0.52952000  1.0 0.1279680626
H  H3  1  0.72898000  0.91328000  0.69715000  1.0 0.1279680626
H  H4  1  0.73456000  0.80464000  0.62540000  1.0 0.1279680626
H  H5  1  0.92304000  0.95974000  0.64616000  1.0 0.1208026432
H  H6  1  0.64984000  0.89050000  0.75244000  1.0 0.1208026432
H  H7  1  0.81886000  0.98833000  0.55103000  1.0 0.1208026432
H  H8  1  0.87835000  0.76623000  0.07631000  1.0 0.1093844691
H  H9  1  0.89261000  0.00768000  0.27021000  1.0 0.1208026432
H  H10  1  0.02068000  0.82818000  0.66368000  1.0 0.1208026432
H  H11  1  0.95445000  0.78132000  0.78955000  1.0 0.1279680626
H  H12  1  0.70950000  0.82295000  0.27518000  1.0 0.1208026432
H  H13  1  0.03434000  0.90587000  0.80648000  1.0 0.1279680626
H  H14  1  0.80959000  0.81725000  0.22936000  1.0 0.1208026432
H  H15  1  0.78653000  0.01376000  0.31264000  1.0 0.1279680626
H  H16  1  0.03520000  0.93922000  0.16924000  1.0 0.1279680626
H  H17  1  0.21352000  0.89715000  0.85294000  1.0 0.1208026432
H  H18  1  0.20090000  0.82478000  0.70897000  1.0 0.1208026432
H  H19  1  0.48229000  0.10427000  0.41253000  1.0 0.1208026432
H  H20  1  0.97009000  0.81043000  0.16762000  1.0 0.1279680626
H  H21  1  0.21277000  0.95682000  0.21312000  1.0 0.1279680626
H  H22  1  0.59301000  0.09836000  0.30421000  1.0 0.1208026432
H  H23  1  0.05623000  0.90499000  0.32275000  1.0 0.1279680626
H  H24  1  0.23188000  0.92692000  0.36696000  1.0 0.1208026432
H  H25  1  0.73992000  0.94178000  0.13044000  1.0 0.1279680626
H  H26  1  0.64931000  0.89773000  0.03879000  1.0 0.1208026432
H  H27  1  0.55709000  0.95966000  0.79882000  1.0 0.1093844691
H  H28  1  0.58972000  0.21128000  0.29838000  1.0 0.1483334528
H  H29  1  0.47806000  0.21680000  0.40946000  1.0 0.1363503413
H  H30  1  0.52579000  0.95988000  0.93588000  1.0 0.1093844691
H  H31  1  0.55090000  0.07313000  0.79482000  1.0 0.1483334528
H  H32  1  0.52383000  0.07150000  0.93861000  1.0 0.1363503413
H  H33  1  0.44189000  0.32136000  0.34389000  1.0 0.1279680626
H  H34  1  0.49091000  0.32193000  0.30117000  1.0 0.1279680626
H  H35  1  0.89838000  0.66767000  0.01494000  1.0 0.1093844691
H  H36  1  0.06849000  0.63715000  0.96712000  1.0 0.1279680626
H  H37  1  0.01337000  0.57331000  0.93009000  1.0 0.1279680626
H  H38  1  0.94963000  0.64009000  0.91961000  1.0 0.1363503413
H  H39  1  0.03658000  0.58554000  0.08806000  1.0 0.1208026432
H  H40  1  0.12166000  0.58652000  0.06753000  1.0 0.1483334528
H  H41  1  0.06232000  0.65266000  0.06649000  1.0 0.1208026432
H  H42  1  0.60857000  0.30910000  0.42012000  1.0 0.1208026432
H  H43  1  0.65305000  0.31995000  0.37552000  1.0 0.1208026432
H  H44  1  0.87642000  0.74040000  0.34505000  1.0 0.1208026432
H  H45  1  0.63463000  0.66900000  0.02952000  1.0 0.1279680626
H  H46  1  0.72898000  0.58672000  0.19715000  1.0 0.1279680626
H  H47  1  0.73456000  0.69536000  0.12540000  1.0 0.1279680626
H  H48  1  0.92304000  0.54026000  0.14616000  1.0 0.1208026432
H  H49  1  0.64984000  0.60950000  0.25244000  1.0 0.1208026432
H  H50  1  0.81886000  0.51167000  0.05103000  1.0 0.1208026432
H  H51  1  0.87835000  0.73377000  0.57631000  1.0 0.1093844691
H  H52  1  0.89261000  0.49232000  0.77021000  1.0 0.1208026432
H  H53  1  0.02068000  0.67182000  0.16368000  1.0 0.1208026432
H  H54  1  0.95445000  0.71868000  0.28955000  1.0 0.1279680626
H  H55  1  0.70950000  0.67705000  0.77518000  1.0 0.1208026432
H  H56  1  0.03434000  0.59413000  0.30648000  1.0 0.1279680626
H  H57  1  0.80959000  0.68275000  0.72936000  1.0 0.1208026432
H  H58  1  0.78653000  0.48624000  0.81264000  1.0 0.1279680626
H  H59  1  0.03520000  0.56078000  0.66924000  1.0 0.1279680626
H  H60  1  0.21352000  0.60285000  0.35294000  1.0 0.1208026432
H  H61  1  0.20090000  0.67522000  0.20897000  1.0 0.1208026432
H  H62  1  0.48229000  0.39573000  0.91253000  1.0 0.1208026432
H  H63  1  0.97009000  0.68957000  0.66762000  1.0 0.1279680626
H  H64  1  0.21277000  0.54318000  0.71312000  1.0 0.1279680626
H  H65  1  0.59301000  0.40164000  0.80421000  1.0 0.1208026432
H  H66  1  0.05623000  0.59501000  0.82275000  1.0 0.1279680626
H  H67  1  0.23188000  0.57308000  0.86696000  1.0 0.1208026432
H  H68  1  0.73992000  0.55822000  0.63044000  1.0 0.1279680626
H  H69  1  0.64931000  0.60227000  0.53879000  1.0 0.1208026432
H  H70  1  0.55709000  0.54034000  0.29882000  1.0 0.1093844691
H  H71  1  0.58972000  0.28872000  0.79838000  1.0 0.1483334528
H  H72  1  0.47806000  0.28320000  0.90946000  1.0 0.1363503413
H  H73  1  0.52579000  0.54012000  0.43588000  1.0 0.1093844691
H  H74  1  0.55090000  0.42687000  0.29482000  1.0 0.1483334528
H  H75  1  0.52383000  0.42850000  0.43861000  1.0 0.1363503413
H  H76  1  0.44189000  0.17864000  0.84389000  1.0 0.1279680626
H  H77  1  0.49091000  0.17807000  0.80117000  1.0 0.1279680626
H  H78  1  0.89838000  0.83233000  0.51494000  1.0 0.1093844691
H  H79  1  0.06849000  0.86285000  0.46712000  1.0 0.1279680626
H  H80  1  0.01337000  0.92669000  0.43009000  1.0 0.1279680626
H  H81  1  0.94963000  0.85991000  0.41961000  1.0 0.1363503413
H  H82  1  0.03658000  0.91446000  0.58806000  1.0 0.1208026432
H  H83  1  0.12166000  0.91348000  0.56753000  1.0 0.1483334528
H  H84  1  0.06232000  0.84734000  0.56649000  1.0 0.1208026432
H  H85  1  0.60857000  0.19090000  0.92012000  1.0 0.1208026432
H  H86  1  0.65305000  0.18005000  0.87552000  1.0 0.1208026432
H  H87  1  0.12358000  0.25960000  0.65495000  1.0 0.1208026432
H  H88  1  0.36537000  0.33100000  0.97048000  1.0 0.1279680626
H  H89  1  0.27102000  0.41328000  0.80285000  1.0 0.1279680626
H  H90  1  0.26544000  0.30464000  0.87460000  1.0 0.1279680626
H  H91  1  0.07696000  0.45974000  0.85384000  1.0 0.1208026432
H  H92  1  0.35016000  0.39050000  0.74756000  1.0 0.1208026432
H  H93  1  0.18114000  0.48833000  0.94897000  1.0 0.1208026432
H  H94  1  0.12165000  0.26623000  0.42369000  1.0 0.1093844691
H  H95  1  0.10739000  0.50768000  0.22979000  1.0 0.1208026432
H  H96  1  0.97932000  0.32818000  0.83632000  1.0 0.1208026432
H  H97  1  0.04555000  0.28132000  0.71045000  1.0 0.1279680626
H  H98  1  0.29050000  0.32295000  0.22482000  1.0 0.1208026432
H  H99  1  0.96566000  0.40587000  0.69352000  1.0 0.1279680626
H  H100  1  0.19041000  0.31725000  0.27064000  1.0 0.1208026432
H  H101  1  0.21347000  0.51376000  0.18736000  1.0 0.1279680626
H  H102  1  0.96480000  0.43922000  0.33076000  1.0 0.1279680626
H  H103  1  0.78648000  0.39715000  0.64706000  1.0 0.1208026432
H  H104  1  0.79910000  0.32478000  0.79103000  1.0 0.1208026432
H  H105  1  0.51771000  0.60427000  0.08747000  1.0 0.1208026432
H  H106  1  0.02991000  0.31043000  0.33238000  1.0 0.1279680626
H  H107  1  0.78723000  0.45682000  0.28688000  1.0 0.1279680626
H  H108  1  0.40699000  0.59836000  0.19579000  1.0 0.1208026432
H  H109  1  0.94377000  0.40499000  0.17725000  1.0 0.1279680626
H  H110  1  0.76812000  0.42692000  0.13304000  1.0 0.1208026432
H  H111  1  0.26008000  0.44178000  0.36956000  1.0 0.1279680626
H  H112  1  0.35069000  0.39773000  0.46121000  1.0 0.1208026432
H  H113  1  0.44291000  0.45966000  0.70118000  1.0 0.1093844691
H  H114  1  0.41028000  0.71128000  0.20162000  1.0 0.1483334528
H  H115  1  0.52194000  0.71680000  0.09054000  1.0 0.1363503413
H  H116  1  0.47421000  0.45988000  0.56412000  1.0 0.1093844691
H  H117  1  0.44910000  0.57313000  0.70518000  1.0 0.1483334528
H  H118  1  0.47617000  0.57150000  0.56139000  1.0 0.1363503413
H  H119  1  0.55811000  0.82136000  0.15611000  1.0 0.1279680626
H  H120  1  0.50909000  0.82193000  0.19883000  1.0 0.1279680626
H  H121  1  0.10162000  0.16767000  0.48506000  1.0 0.1093844691
H  H122  1  0.93151000  0.13715000  0.53288000  1.0 0.1279680626
H  H123  1  0.98663000  0.07331000  0.56991000  1.0 0.1279680626
H  H124  1  0.05037000  0.14009000  0.58039000  1.0 0.1363503413
H  H125  1  0.96342000  0.08554000  0.41194000  1.0 0.1208026432
H  H126  1  0.87834000  0.08652000  0.43247000  1.0 0.1483334528
H  H127  1  0.93768000  0.15266000  0.43351000  1.0 0.1208026432
H  H128  1  0.39143000  0.80910000  0.07988000  1.0 0.1208026432
H  H129  1  0.34695000  0.81995000  0.12448000  1.0 0.1208026432
H  H130  1  0.12358000  0.24040000  0.15495000  1.0 0.1208026432
H  H131  1  0.36537000  0.16900000  0.47048000  1.0 0.1279680626
H  H132  1  0.27102000  0.08672000  0.30285000  1.0 0.1279680626
H  H133  1  0.26544000  0.19536000  0.37460000  1.0 0.1279680626
H  H134  1  0.07696000  0.04026000  0.35384000  1.0 0.1208026432
H  H135  1  0.35016000  0.10950000  0.24756000  1.0 0.1208026432
H  H136  1  0.18114000  0.01167000  0.44897000  1.0 0.1208026432
H  H137  1  0.12165000  0.23377000  0.92369000  1.0 0.1093844691
H  H138  1  0.10739000  0.99232000  0.72979000  1.0 0.1208026432
H  H139  1  0.97932000  0.17182000  0.33632000  1.0 0.1208026432
H  H140  1  0.04555000  0.21868000  0.21045000  1.0 0.1279680626
H  H141  1  0.29050000  0.17705000  0.72482000  1.0 0.1208026432
H  H142  1  0.96566000  0.09413000  0.19352000  1.0 0.1279680626
H  H143  1  0.19041000  0.18275000  0.77064000  1.0 0.1208026432
H  H144  1  0.21347000  0.98624000  0.68736000  1.0 0.1279680626
H  H145  1  0.96480000  0.06078000  0.83076000  1.0 0.1279680626
H  H146  1  0.78648000  0.10285000  0.14706000  1.0 0.1208026432
H  H147  1  0.79910000  0.17522000  0.29103000  1.0 0.1208026432
H  H148  1  0.51771000  0.89573000  0.58747000  1.0 0.1208026432
H  H149  1  0.02991000  0.18957000  0.83238000  1.0 0.1279680626
H  H150  1  0.78723000  0.04318000  0.78688000  1.0 0.1279680626
H  H151  1  0.40699000  0.90164000  0.69579000  1.0 0.1208026432
H  H152  1  0.94377000  0.09501000  0.67725000  1.0 0.1279680626
H  H153  1  0.76812000  0.07308000  0.63304000  1.0 0.1208026432
H  H154  1  0.26008000  0.05822000  0.86956000  1.0 0.1279680626
H  H155  1  0.35069000  0.10227000  0.96121000  1.0 0.1208026432
H  H156  1  0.44291000  0.04034000  0.20118000  1.0 0.1093844691
H  H157  1  0.41028000  0.78872000  0.70162000  1.0 0.1483334528
H  H158  1  0.52194000  0.78320000  0.59054000  1.0 0.1363503413
H  H159  1  0.47421000  0.04012000  0.06412000  1.0 0.1093844691
H  H160  1  0.44910000  0.92687000  0.20518000  1.0 0.1483334528
H  H161  1  0.47617000  0.92850000  0.06139000  1.0 0.1363503413
H  H162  1  0.55811000  0.67864000  0.65611000  1.0 0.1279680626
H  H163  1  0.50909000  0.67807000  0.69883000  1.0 0.1279680626
H  H164  1  0.10162000  0.33233000  0.98506000  1.0 0.1093844691
H  H165  1  0.93151000  0.36285000  0.03288000  1.0 0.1279680626
H  H166  1  0.98663000  0.42669000  0.06991000  1.0 0.1279680626
H  H167  1  0.05037000  0.35991000  0.08039000  1.0 0.1363503413
H  H168  1  0.96342000  0.41446000  0.91194000  1.0 0.1208026432
H  H169  1  0.87834000  0.41348000  0.93247000  1.0 0.1483334528
H  H170  1  0.93768000  0.34734000  0.93351000  1.0 0.1208026432
H  H171  1  0.39143000  0.69090000  0.57988000  1.0 0.1208026432
H  H172  1  0.34695000  0.68005000  0.62448000  1.0 0.1208026432
C  C1  1  0.65156000  0.93020000  0.46906000  1.0 0.5582942095
C  C2  1  0.69960000  0.80410000  0.83720000  1.0 0.5672253396
C  C3  1  0.71647000  0.91230000  0.53047000  1.0 -0.0276970124
C  C4  1  0.66674000  0.92140000  0.32484000  1.0 0.5672253396
C  C5  1  0.75487000  0.82870000  0.04747000  1.0 -0.0276970124
C  C6  1  0.86033000  0.91200000  0.24483000  1.0 0.174223068
C  C7  1  0.69656000  0.80180000  0.98716000  1.0 0.5779488709
C  C8  1  0.00898000  0.86470000  0.73138000  1.0 0.174223068
C  C9  1  0.02704000  0.91960000  0.24194000  1.0 0.1778701148
C  C10  1  0.34083000  0.85230000  0.81613000  1.0 0.5135393318
C  C11  1  0.86490000  0.88060000  0.15800000  1.0 0.174223068
C  C12  1  0.73606000  0.91940000  0.29776000  1.0 -0.0227129486
C  C13  1  0.84593000  0.79040000  0.81483000  1.0 -0.089433921
C  C14  1  0.85018000  0.85010000  0.73808000  1.0 0.174223068
C  C15  1  0.83869000  0.87980000  0.64589000  1.0 0.1778701148
C  C16  1  0.69234000  0.85750000  0.55324000  1.0 -0.0810376975
C  C17  1  0.75886000  0.88210000  0.72706000  1.0 -0.170208567
C  C18  1  0.24200000  0.94390000  0.29480000  1.0 -0.0227129486
C  C19  1  0.75220000  0.84160000  0.61030000  1.0 -0.1874519343
C  C20  1  0.22552000  0.85860000  0.78612000  1.0 -0.0276970124
C  C21  1  0.86384000  0.93410000  0.62284000  1.0 -0.1817478596
C  C22  1  0.75376000  0.82190000  0.80376000  1.0 -0.0276970124
C  C23  1  0.71154000  0.86820000  0.75994000  1.0 -0.0810376975
C  C24  1  0.80248000  0.95070000  0.56598000  1.0 -0.0976552155
C  C25  1  0.85050000  0.80230000  0.08690000  1.0 -0.089433921
C  C26  1  0.85429000  0.97030000  0.27029000  1.0 -0.1817478596
C  C27  1  0.05959000  0.84200000  0.70209000  1.0 -0.1990388258
C  C28  1  0.89292000  0.80370000  0.78212000  1.0 -0.1990388258
C  C29  1  0.74510000  0.86090000  0.27340000  1.0 -0.0810376975
C  C30  1  0.06780000  0.88740000  0.78720000  1.0 -0.1990388258
C  C31  1  0.80580000  0.85720000  0.24650000  1.0 -0.1817478596
C  C32  1  0.79136000  0.97360000  0.29606000  1.0 -0.089433921
C  C33  1  0.35599000  0.96020000  0.32319000  1.0 0.5172332105
C  C34  1  0.07520000  0.93580000  0.20940000  1.0 -0.1990388258
C  C35  1  0.17457000  0.88320000  0.81457000  1.0 -0.089433921
C  C36  1  0.16710000  0.83950000  0.72930000  1.0 -0.089433921
C  C37  1  0.50400000  0.12620000  0.38890000  1.0 0.0824757617
C  C38  1  0.90500000  0.82840000  0.14150000  1.0 -0.1874519343
C  C39  1  0.18125000  0.94690000  0.23575000  1.0 -0.089433921
C  C40  1  0.56860000  0.12290000  0.32540000  1.0 0.0703280296
C  C41  1  0.08740000  0.91620000  0.30020000  1.0 -0.1990388258
C  C42  1  0.19280000  0.92870000  0.32670000  1.0 -0.089433921
C  C43  1  0.76859000  0.90650000  0.11949000  1.0 -0.1817478596
C  C44  1  0.71470000  0.88010000  0.06470000  1.0 -0.089433921
C  C45  1  0.54930000  0.98310000  0.82710000  1.0 0.0899022546
C  C46  1  0.56620000  0.19020000  0.32150000  1.0 -0.1817478596
C  C47  1  0.50040000  0.19330000  0.38680000  1.0 -0.1990388258
C  C48  1  0.53170000  0.98360000  0.90710000  1.0 0.0628586959
C  C49  1  0.54690000  0.05080000  0.82470000  1.0 -0.170208567
C  C50  1  0.52930000  0.22790000  0.35160000  1.0 0.1208026432
C  C51  1  0.53030000  0.04990000  0.90920000  1.0 -0.1874519343
C  C52  1  0.50110000  0.30780000  0.33880000  1.0 -0.2175552707
C  C53  1  0.89040000  0.63720000  0.98630000  1.0 0.2932343435
C  C54  1  0.53850000  0.08640000  0.86730000  1.0 0.0120184178
C  C55  1  0.00380000  0.61240000  0.94840000  1.0 -0.4168953273
C  C56  1  0.05570000  0.60490000  0.06110000  1.0 -0.3603866521
C  C57  1  0.59390000  0.32660000  0.38260000  1.0 -0.2500089492
C  C58  1  0.65156000  0.56980000  0.96906000  1.0 0.5582942095
C  C59  1  0.69960000  0.69590000  0.33720000  1.0 0.5672253396
C  C60  1  0.71647000  0.58770000  0.03047000  1.0 -0.0276970124
C  C61  1  0.66674000  0.57860000  0.82484000  1.0 0.5672253396
C  C62  1  0.75487000  0.67130000  0.54747000  1.0 -0.0276970124
C  C63  1  0.86033000  0.58800000  0.74483000  1.0 0.174223068
C  C64  1  0.69656000  0.69820000  0.48716000  1.0 0.5779488709
C  C65  1  0.00898000  0.63530000  0.23138000  1.0 0.174223068
C  C66  1  0.02704000  0.58040000  0.74194000  1.0 0.1778701148
C  C67  1  0.34083000  0.64770000  0.31613000  1.0 0.5135393318
C  C68  1  0.86490000  0.61940000  0.65800000  1.0 0.1778701148
C  C69  1  0.73606000  0.58060000  0.79776000  1.0 -0.0227129486
C  C70  1  0.84593000  0.70960000  0.31483000  1.0 -0.089433921
C  C71  1  0.85018000  0.64990000  0.23808000  1.0 0.174223068
C  C72  1  0.83869000  0.62020000  0.14589000  1.0 0.1778701148
C  C73  1  0.69234000  0.64250000  0.05324000  1.0 -0.0810376975
C  C74  1  0.75886000  0.61790000  0.22706000  1.0 -0.170208567
C  C75  1  0.24200000  0.55610000  0.79480000  1.0 -0.0227129486
C  C76  1  0.75220000  0.65840000  0.11030000  1.0 -0.1874519343
C  C77  1  0.22552000  0.64140000  0.28612000  1.0 -0.0276970124
C  C78  1  0.86384000  0.56590000  0.12284000  1.0 -0.1817478596
C  C79  1  0.75376000  0.67810000  0.30376000  1.0 -0.0276970124
C  C80  1  0.71154000  0.63180000  0.25994000  1.0 -0.0810376975
C  C81  1  0.80248000  0.54930000  0.06598000  1.0 -0.0976552155
C  C82  1  0.85050000  0.69770000  0.58690000  1.0 -0.089433921
C  C83  1  0.85429000  0.52970000  0.77029000  1.0 -0.1817478596
C  C84  1  0.05959000  0.65800000  0.20209000  1.0 -0.1990388258
C  C85  1  0.89292000  0.69630000  0.28212000  1.0 -0.1990388258
C  C86  1  0.74510000  0.63910000  0.77340000  1.0 -0.0810376975
C  C87  1  0.06780000  0.61260000  0.28720000  1.0 -0.1990388258
C  C88  1  0.80580000  0.64280000  0.74650000  1.0 -0.1817478596
C  C89  1  0.79136000  0.52640000  0.79606000  1.0 -0.089433921
C  C90  1  0.35599000  0.53980000  0.82319000  1.0 0.5172332105
C  C91  1  0.07520000  0.56420000  0.70940000  1.0 -0.1990388258
C  C92  1  0.17457000  0.61680000  0.31457000  1.0 -0.089433921
C  C93  1  0.16710000  0.66050000  0.22930000  1.0 -0.089433921
C  C94  1  0.50400000  0.37380000  0.88890000  1.0 0.0824757617
C  C95  1  0.90500000  0.67160000  0.64150000  1.0 -0.1874519343
C  C96  1  0.18125000  0.55310000  0.73575000  1.0 -0.089433921
C  C97  1  0.56860000  0.37710000  0.82540000  1.0 0.0703280296
C  C98  1  0.08740000  0.58380000  0.80020000  1.0 -0.1990388258
C  C99  1  0.19280000  0.57130000  0.82670000  1.0 -0.089433921
C  C100  1  0.76859000  0.59350000  0.61949000  1.0 -0.1817478596
C  C101  1  0.71470000  0.61990000  0.56470000  1.0 -0.089433921
C  C102  1  0.54930000  0.51690000  0.32710000  1.0 0.0899022546
C  C103  1  0.56620000  0.30980000  0.82150000  1.0 -0.1817478596
C  C104  1  0.50040000  0.30670000  0.88680000  1.0 -0.1990388258
C  C105  1  0.53170000  0.51640000  0.40710000  1.0 0.0628586959
C  C106  1  0.54690000  0.44920000  0.32470000  1.0 -0.170208567
C  C107  1  0.52930000  0.27210000  0.85160000  1.0 0.1208026432
C  C108  1  0.53030000  0.45010000  0.40920000  1.0 -0.1874519343
C  C109  1  0.50110000  0.19220000  0.83880000  1.0 -0.2175552707
C  C110  1  0.89040000  0.86280000  0.48630000  1.0 0.2932343435
C  C111  1  0.53850000  0.41360000  0.36730000  1.0 0.0120184178
C  C112  1  0.00380000  0.88760000  0.44840000  1.0 -0.4168953273
C  C113  1  0.05570000  0.89510000  0.56110000  1.0 -0.3603866521
C  C114  1  0.59390000  0.17340000  0.88260000  1.0 -0.2500089492
C  C115  1  0.34844000  0.43020000  0.03094000  1.0 0.5582942095
C  C116  1  0.30040000  0.30410000  0.66280000  1.0 0.5672253396
C  C117  1  0.28353000  0.41230000  0.96953000  1.0 -0.0276970124
C  C118  1  0.33326000  0.42140000  0.17516000  1.0 0.5672253396
C  C119  1  0.24513000  0.32870000  0.45253000  1.0 -0.0276970124
C  C120  1  0.13967000  0.41200000  0.25517000  1.0 0.174223068
C  C121  1  0.30344000  0.30180000  0.51284000  1.0 0.5779488709
C  C122  1  0.99102000  0.36470000  0.76862000  1.0 0.174223068
C  C123  1  0.97296000  0.41960000  0.25806000  1.0 0.1778701148
C  C124  1  0.65917000  0.35230000  0.68387000  1.0 0.5135393318
C  C125  1  0.13510000  0.38060000  0.34200000  1.0 0.1778701148
C  C126  1  0.26394000  0.41940000  0.20224000  1.0 -0.0227129486
C  C127  1  0.15407000  0.29040000  0.68517000  1.0 -0.089433921
C  C128  1  0.14982000  0.35010000  0.76192000  1.0 0.1778701148
C  C129  1  0.16131000  0.37980000  0.85411000  1.0 0.1778701148
C  C130  1  0.30766000  0.35750000  0.94676000  1.0 -0.0810376975
C  C131  1  0.24114000  0.38210000  0.77294000  1.0 -0.170208567
C  C132  1  0.75800000  0.44390000  0.20520000  1.0 -0.0227129486
C  C133  1  0.24780000  0.34160000  0.88970000  1.0 -0.1874519343
C  C134  1  0.77448000  0.35860000  0.71388000  1.0 -0.0276970124
C  C135  1  0.13616000  0.43410000  0.87716000  1.0 -0.1874519343
C  C136  1  0.24624000  0.32190000  0.69624000  1.0 -0.0276970124
C  C137  1  0.28846000  0.36820000  0.74006000  1.0 -0.0810376975
C  C138  1  0.19752000  0.45070000  0.93402000  1.0 -0.0976552155
C  C139  1  0.14950000  0.30230000  0.41310000  1.0 -0.089433921
C  C140  1  0.14571000  0.47030000  0.22971000  1.0 -0.1817478596
C  C141  1  0.94041000  0.34200000  0.79791000  1.0 -0.1990388258
C  C142  1  0.10708000  0.30370000  0.71788000  1.0 -0.1990388258
C  C143  1  0.25490000  0.36090000  0.22660000  1.0 -0.0810376975
C  C144  1  0.93220000  0.38740000  0.71280000  1.0 -0.1990388258
C  C145  1  0.19420000  0.35720000  0.25350000  1.0 -0.1817478596
C  C146  1  0.20864000  0.47360000  0.20394000  1.0 -0.089433921
C  C147  1  0.64401000  0.46020000  0.17681000  1.0 0.5172332105
C  C148  1  0.92480000  0.43580000  0.29060000  1.0 -0.1990388258
C  C149  1  0.82543000  0.38320000  0.68543000  1.0 -0.089433921
C  C150  1  0.83290000  0.33950000  0.77070000  1.0 -0.089433921
C  C151  1  0.49600000  0.62620000  0.11110000  1.0 0.0824757617
C  C152  1  0.09500000  0.32840000  0.35850000  1.0 -0.1874519343
C  C153  1  0.81875000  0.44690000  0.26425000  1.0 -0.089433921
C  C154  1  0.43140000  0.62290000  0.17460000  1.0 0.0703280296
C  C155  1  0.91260000  0.41620000  0.19980000  1.0 -0.1990388258
C  C156  1  0.80720000  0.42870000  0.17330000  1.0 -0.089433921
C  C157  1  0.23141000  0.40650000  0.38051000  1.0 -0.1817478596
C  C158  1  0.28530000  0.38010000  0.43530000  1.0 -0.089433921
C  C159  1  0.45070000  0.48310000  0.67290000  1.0 0.0899022546
C  C160  1  0.43380000  0.69020000  0.17850000  1.0 -0.1817478596
C  C161  1  0.49960000  0.69330000  0.11320000  1.0 -0.1990388258
C  C162  1  0.46830000  0.48360000  0.59290000  1.0 0.0628586959
C  C163  1  0.45310000  0.55080000  0.67530000  1.0 -0.170208567
C  C164  1  0.47070000  0.72790000  0.14840000  1.0 0.1208026432
C  C165  1  0.46970000  0.54990000  0.59080000  1.0 -0.1874519343
C  C166  1  0.49890000  0.80780000  0.16120000  1.0 -0.2175552707
C  C167  1  0.10960000  0.13720000  0.51370000  1.0 0.2932343435
C  C168  1  0.46150000  0.58640000  0.63270000  1.0 0.0120184178
C  C169  1  0.99620000  0.11240000  0.55160000  1.0 -0.4168953273
C  C170  1  0.94430000  0.10490000  0.43890000  1.0 -0.3603866521
C  C171  1  0.40610000  0.82660000  0.11740000  1.0 -0.2500089492
C  C172  1  0.34844000  0.06980000  0.53094000  1.0 0.5582942095
C  C173  1  0.30040000  0.19590000  0.16280000  1.0 0.5672253396
C  C174  1  0.28353000  0.08770000  0.46953000  1.0 -0.0276970124
C  C175  1  0.33326000  0.07860000  0.67516000  1.0 0.5672253396
C  C176  1  0.24513000  0.17130000  0.95253000  1.0 -0.0276970124
C  C177  1  0.13967000  0.08800000  0.75517000  1.0 0.174223068
C  C178  1  0.30344000  0.19820000  0.01284000  1.0 0.5779488709
C  C179  1  0.99102000  0.13530000  0.26862000  1.0 0.174223068
C  C180  1  0.97296000  0.08040000  0.75806000  1.0 0.1778701148
C  C181  1  0.65917000  0.14770000  0.18387000  1.0 0.5135393318
C  C182  1  0.13510000  0.11940000  0.84200000  1.0 0.1778701148
C  C183  1  0.26394000  0.08060000  0.70224000  1.0 -0.0227129486
C  C184  1  0.15407000  0.20960000  0.18517000  1.0 -0.089433921
C  C185  1  0.14982000  0.14990000  0.26192000  1.0 0.174223068
C  C186  1  0.16131000  0.12020000  0.35411000  1.0 0.1778701148
C  C187  1  0.30766000  0.14250000  0.44676000  1.0 -0.0810376975
C  C188  1  0.24114000  0.11790000  0.27294000  1.0 -0.170208567
C  C189  1  0.75800000  0.05610000  0.70520000  1.0 -0.0227129486
C  C190  1  0.24780000  0.15840000  0.38970000  1.0 -0.1874519343
C  C191  1  0.77448000  0.14140000  0.21388000  1.0 -0.0276970124
C  C192  1  0.13616000  0.06590000  0.37716000  1.0 -0.1817478596
C  C193  1  0.24624000  0.17810000  0.19624000  1.0 -0.0276970124
C  C194  1  0.28846000  0.13180000  0.24006000  1.0 -0.0810376975
C  C195  1  0.19752000  0.04930000  0.43402000  1.0 -0.0976552155
C  C196  1  0.14950000  0.19770000  0.91310000  1.0 -0.089433921
C  C197  1  0.14571000  0.02970000  0.72971000  1.0 -0.1817478596
C  C198  1  0.94041000  0.15800000  0.29791000  1.0 -0.1990388258
C  C199  1  0.10708000  0.19630000  0.21788000  1.0 -0.1990388258
C  C200  1  0.25490000  0.13910000  0.72660000  1.0 -0.0810376975
C  C201  1  0.93220000  0.11260000  0.21280000  1.0 -0.1990388258
C  C202  1  0.19420000  0.14280000  0.75350000  1.0 -0.1817478596
C  C203  1  0.20864000  0.02640000  0.70394000  1.0 -0.089433921
C  C204  1  0.64401000  0.03980000  0.67681000  1.0 0.5172332105
C  C205  1  0.92480000  0.06420000  0.79060000  1.0 -0.1990388258
C  C206  1  0.82543000  0.11680000  0.18543000  1.0 -0.089433921
C  C207  1  0.83290000  0.16050000  0.27070000  1.0 -0.089433921
C  C208  1  0.49600000  0.87380000  0.61110000  1.0 0.0824757617
C  C209  1  0.09500000  0.17160000  0.85850000  1.0 -0.1874519343
C  C210  1  0.81875000  0.05310000  0.76425000  1.0 -0.089433921
C  C211  1  0.43140000  0.87710000  0.67460000  1.0 0.0703280296
C  C212  1  0.91260000  0.08380000  0.69980000  1.0 -0.1990388258
C  C213  1  0.80720000  0.07130000  0.67330000  1.0 -0.089433921
C  C214  1  0.23141000  0.09350000  0.88051000  1.0 -0.1817478596
C  C215  1  0.28530000  0.11990000  0.93530000  1.0 -0.089433921
C  C216  1  0.45070000  0.01690000  0.17290000  1.0 0.0899022546
C  C217  1  0.43380000  0.80980000  0.67850000  1.0 -0.1817478596
C  C218  1  0.49960000  0.80670000  0.61320000  1.0 -0.1990388258
C  C219  1  0.46830000  0.01640000  0.09290000  1.0 0.0628586959
C  C220  1  0.45310000  0.94920000  0.17530000  1.0 -0.170208567
C  C221  1  0.47070000  0.77210000  0.64840000  1.0 0.1208026432
C  C222  1  0.46970000  0.95010000  0.09080000  1.0 -0.1874519343
C  C223  1  0.49890000  0.69220000  0.66120000  1.0 -0.2175552707
C  C224  1  0.10960000  0.36280000  0.01370000  1.0 0.2932343435
C  C225  1  0.46150000  0.91360000  0.13270000  1.0 0.0120184178
C  C226  1  0.99620000  0.38760000  0.05160000  1.0 -0.4168953273
C  C227  1  0.94430000  0.39510000  0.93890000  1.0 -0.3603866521
C  C228  1  0.40610000  0.67340000  0.61740000  1.0 -0.2500089492
N  N1  1  0.91886000  0.90790000  0.21466000  1.0 -0.1817478596
N  N2  1  0.53713000  0.08987000  0.35883000  1.0 -0.2654854927
N  N3  1  0.89955000  0.86470000  0.70485000  1.0 -0.170208567
N  N4  1  0.54096000  0.94880000  0.86716000  1.0 -0.2395074304
N  N5  1  0.96860000  0.58880000  0.99770000  1.0 -0.0057765287
N  N6  1  0.91886000  0.59210000  0.71466000  1.0 -0.1817478596
N  N7  1  0.53713000  0.41013000  0.85883000  1.0 -0.2654854927
N  N8  1  0.89955000  0.63530000  0.20485000  1.0 -0.170208567
N  N9  1  0.54096000  0.55120000  0.36716000  1.0 -0.2395074304
N  N10  1  0.96860000  0.91120000  0.49770000  1.0 -0.0057765287
N  N11  1  0.08114000  0.40790000  0.28534000  1.0 -0.1817478596
N  N12  1  0.46287000  0.58987000  0.14117000  1.0 -0.2654854927
N  N13  1  0.10045000  0.36470000  0.79515000  1.0 -0.170208567
N  N14  1  0.45904000  0.44880000  0.63284000  1.0 -0.2395074304
N  N15  1  0.03140000  0.08880000  0.50230000  1.0 -0.0041674884
N  N16  1  0.08114000  0.09210000  0.78534000  1.0 -0.1817478596
N  N17  1  0.46287000  0.91013000  0.64117000  1.0 -0.2654854927
N  N18  1  0.10045000  0.13530000  0.29515000  1.0 -0.170208567
N  N19  1  0.45904000  0.05120000  0.13284000  1.0 -0.2395074304
N  N20  1  0.03140000  0.41120000  0.00230000  1.0 -0.0041674884
O  O1  1  0.51928000  0.73334000  0.86598000  1.0 -0.2814159442
O  O2  1  0.60907000  0.88638000  0.43137000  1.0 -0.552554724
O  O3  1  0.62899000  0.86825000  0.33049000  1.0 -0.5414412852
O  O4  1  0.63879000  0.99101000  0.45549000  1.0 -0.5231888864
O  O5  1  0.72395000  0.74717000  0.97735000  1.0 -0.5617979143
O  O6  1  0.64842000  0.97724000  0.33892000  1.0 -0.5414412852
O  O7  1  0.62223000  0.83853000  0.82873000  1.0 -0.5414412852
O  O8  1  0.73592000  0.75671000  0.87172000  1.0 -0.552554724
O  O9  1  0.38785000  0.84389000  0.78795000  1.0 -0.5231888864
O  O10  1  0.39080000  0.85521000  0.87020000  1.0 -0.5231888864
O  O11  1  0.62445000  0.83819000  0.95185000  1.0 -0.5414412852
O  O12  1  0.40241000  0.97912000  0.37421000  1.0 -0.5231888864
O  O13  1  0.40525000  0.95577000  0.29565000  1.0 -0.5279029581
O  O14  1  0.81846000  0.63880000  0.94266000  1.0 -0.306466994
O  O15  1  0.51928000  0.76666000  0.36598000  1.0 -0.2814159442
O  O16  1  0.60907000  0.61362000  0.93137000  1.0 -0.552554724
O  O17  1  0.62899000  0.63175000  0.83049000  1.0 -0.5414412852
O  O18  1  0.63879000  0.50899000  0.95549000  1.0 -0.5231888864
O  O19  1  0.72395000  0.75283000  0.47735000  1.0 -0.5617979143
O  O20  1  0.64842000  0.52276000  0.83892000  1.0 -0.5414412852
O  O21  1  0.62223000  0.66147000  0.32873000  1.0 -0.5414412852
O  O22  1  0.73592000  0.74329000  0.37172000  1.0 -0.552554724
O  O23  1  0.38785000  0.65611000  0.28795000  1.0 -0.5231888864
O  O24  1  0.39080000  0.64479000  0.37020000  1.0 -0.5231888864
O  O25  1  0.62445000  0.66181000  0.45185000  1.0 -0.5414412852
O  O26  1  0.40241000  0.52088000  0.87421000  1.0 -0.5231888864
O  O27  1  0.40525000  0.54423000  0.79565000  1.0 -0.5279029581
O  O28  1  0.81846000  0.86120000  0.44266000  1.0 -0.306466994
O  O29  1  0.48072000  0.23334000  0.63402000  1.0 -0.2814159442
O  O30  1  0.39093000  0.38638000  0.06863000  1.0 -0.552554724
O  O31  1  0.37101000  0.36825000  0.16951000  1.0 -0.5414412852
O  O32  1  0.36121000  0.49101000  0.04451000  1.0 -0.5231888864
O  O33  1  0.27605000  0.24717000  0.52265000  1.0 -0.5617979143
O  O34  1  0.35158000  0.47724000  0.16108000  1.0 -0.5414412852
O  O35  1  0.37777000  0.33853000  0.67127000  1.0 -0.5414412852
O  O36  1  0.26408000  0.25671000  0.62828000  1.0 -0.552554724
O  O37  1  0.61215000  0.34389000  0.71205000  1.0 -0.5231888864
O  O38  1  0.60920000  0.35521000  0.62980000  1.0 -0.5231888864
O  O39  1  0.37555000  0.33819000  0.54815000  1.0 -0.5414412852
O  O40  1  0.59759000  0.47912000  0.12579000  1.0 -0.5231888864
O  O41  1  0.59475000  0.45577000  0.20435000  1.0 -0.5279029581
O  O42  1  0.18154000  0.13880000  0.55734000  1.0 -0.306466994
O  O43  1  0.48072000  0.26666000  0.13402000  1.0 -0.2814159442
O  O44  1  0.39093000  0.11362000  0.56863000  1.0 -0.552554724
O  O45  1  0.37101000  0.13175000  0.66951000  1.0 -0.5414412852
O  O46  1  0.36121000  0.00899000  0.54451000  1.0 -0.5231888864
O  O47  1  0.27605000  0.25283000  0.02265000  1.0 -0.5617979143
O  O48  1  0.35158000  0.02276000  0.66108000  1.0 -0.5414412852
O  O49  1  0.37777000  0.16147000  0.17127000  1.0 -0.5414412852
O  O50  1  0.26408000  0.24329000  0.12828000  1.0 -0.552554724
O  O51  1  0.61215000  0.15611000  0.21205000  1.0 -0.5231888864
O  O52  1  0.60920000  0.14479000  0.12980000  1.0 -0.5231888864
O  O53  1  0.37555000  0.16181000  0.04815000  1.0 -0.5414412852
O  O54  1  0.59759000  0.02088000  0.62579000  1.0 -0.5231888864
O  O55  1  0.59475000  0.04423000  0.70435000  1.0 -0.5279029581
O  O56  1  0.18154000  0.36120000  0.05734000  1.0 -0.306466994
