# DDEC6 charges by PACMAN v1.1 (https://github.com/mtap-research/PACMAN-charge/)
data_ZUSNOS_ASR_pacman
_symmetry_space_group_name_H-M   'P 1'
_cell_length_a   26.58200000
_cell_length_b   26.58200000
_cell_length_c   39.19000000
_cell_angle_alpha   90.00000000
_cell_angle_beta   90.00000000
_cell_angle_gamma   90.00000000
_symmetry_Int_Tables_number   1
_chemical_formula_structural   Cu6H33(C35O13)2
_chemical_formula_sum   'Cu48 H264 C560 O208'
_cell_volume   27691.76075356
_cell_formula_units_Z   8
loop_
 _symmetry_equiv_pos_site_id
 _symmetry_equiv_pos_as_xyz
  1  'x, y, z'
loop_
 _atom_site_type_symbol
 _atom_site_label
 _atom_site_symmetry_multiplicity
 _atom_site_fract_x
 _atom_site_fract_y
 _atom_site_fract_z
 _atom_site_occupancy
 _atom_site_charge
Cu  Cu1  1  0.11039000  0.18234000  0.14508000  1.0 0.8593014885
Cu  Cu2  1  0.88961000  0.81766000  0.14508000  1.0 0.8593014885
Cu  Cu3  1  0.81766000  0.11039000  0.14508000  1.0 0.8593014885
Cu  Cu4  1  0.18234000  0.88961000  0.14508000  1.0 0.8593014885
Cu  Cu5  1  0.38961000  0.68234000  0.35492000  1.0 0.8593014885
Cu  Cu6  1  0.61039000  0.31766000  0.35492000  1.0 0.8593014885
Cu  Cu7  1  0.68234000  0.61039000  0.35492000  1.0 0.8593014885
Cu  Cu8  1  0.31766000  0.38961000  0.35492000  1.0 0.8593014885
Cu  Cu9  1  0.88961000  0.81766000  0.85492000  1.0 0.8593014885
Cu  Cu10  1  0.11039000  0.18234000  0.85492000  1.0 0.8593014885
Cu  Cu11  1  0.18234000  0.88961000  0.85492000  1.0 0.8593014885
Cu  Cu12  1  0.81766000  0.11039000  0.85492000  1.0 0.8593014885
Cu  Cu13  1  0.61039000  0.31766000  0.64508000  1.0 0.8593014885
Cu  Cu14  1  0.38961000  0.68234000  0.64508000  1.0 0.8593014885
Cu  Cu15  1  0.31766000  0.38961000  0.64508000  1.0 0.8593014885
Cu  Cu16  1  0.68234000  0.61039000  0.64508000  1.0 0.8593014885
Cu  Cu17  1  0.14412000  0.24254000  0.19383000  1.0 0.8671422808
Cu  Cu18  1  0.85588000  0.75746000  0.19383000  1.0 0.8671422808
Cu  Cu19  1  0.75746000  0.14412000  0.19383000  1.0 0.8671422808
Cu  Cu20  1  0.24254000  0.85588000  0.19383000  1.0 0.8671422808
Cu  Cu21  1  0.35588000  0.74254000  0.30617000  1.0 0.8671422808
Cu  Cu22  1  0.64412000  0.25746000  0.30617000  1.0 0.8671422808
Cu  Cu23  1  0.74254000  0.64412000  0.30617000  1.0 0.8671422808
Cu  Cu24  1  0.25746000  0.35588000  0.30617000  1.0 0.8671422808
Cu  Cu25  1  0.85588000  0.75746000  0.80617000  1.0 0.8671422808
Cu  Cu26  1  0.14412000  0.24254000  0.80617000  1.0 0.8671422808
Cu  Cu27  1  0.24254000  0.85588000  0.80617000  1.0 0.8671422808
Cu  Cu28  1  0.75746000  0.14412000  0.80617000  1.0 0.8671422808
Cu  Cu29  1  0.64412000  0.25746000  0.69383000  1.0 0.8671422808
Cu  Cu30  1  0.35588000  0.74254000  0.69383000  1.0 0.8671422808
Cu  Cu31  1  0.25746000  0.35588000  0.69383000  1.0 0.8671422808
Cu  Cu32  1  0.74254000  0.64412000  0.69383000  1.0 0.8671422808
Cu  Cu33  1  0.41741000  0.21393000  0.50000000  1.0 0.848718207
Cu  Cu34  1  0.58259000  0.78607000  0.50000000  1.0 0.848718207
Cu  Cu35  1  0.78607000  0.41741000  0.50000000  1.0 0.848718207
Cu  Cu36  1  0.21393000  0.58259000  0.50000000  1.0 0.848718207
Cu  Cu37  1  0.08259000  0.71393000  0.00000000  1.0 0.848718207
Cu  Cu38  1  0.91741000  0.28607000  0.00000000  1.0 0.848718207
Cu  Cu39  1  0.71393000  0.91741000  0.00000000  1.0 0.848718207
Cu  Cu40  1  0.28607000  0.08259000  0.00000000  1.0 0.848718207
Cu  Cu41  1  0.39525000  0.11686000  0.50000000  1.0 0.8671422808
Cu  Cu42  1  0.60475000  0.88314000  0.50000000  1.0 0.8671422808
Cu  Cu43  1  0.88314000  0.39525000  0.50000000  1.0 0.8671422808
Cu  Cu44  1  0.11686000  0.60475000  0.50000000  1.0 0.8671422808
Cu  Cu45  1  0.10475000  0.61686000  0.00000000  1.0 0.8671422808
Cu  Cu46  1  0.89525000  0.38314000  0.00000000  1.0 0.8671422808
Cu  Cu47  1  0.61686000  0.89525000  0.00000000  1.0 0.8671422808
Cu  Cu48  1  0.38314000  0.10475000  0.00000000  1.0 0.8671422808
H  H1  1  0.24310000  0.12520000  0.31110000  1.0 0.1111222411
H  H2  1  0.75690000  0.87480000  0.31110000  1.0 0.1111222411
H  H3  1  0.87480000  0.24310000  0.31110000  1.0 0.1111222411
H  H4  1  0.12520000  0.75690000  0.31110000  1.0 0.1111222411
H  H5  1  0.25690000  0.62520000  0.18890000  1.0 0.1111222411
H  H6  1  0.74310000  0.37480000  0.18890000  1.0 0.1111222411
H  H7  1  0.62520000  0.74310000  0.18890000  1.0 0.1111222411
H  H8  1  0.37480000  0.25690000  0.18890000  1.0 0.1111222411
H  H9  1  0.75690000  0.87480000  0.68890000  1.0 0.1111222411
H  H10  1  0.24310000  0.12520000  0.68890000  1.0 0.1111222411
H  H11  1  0.12520000  0.75690000  0.68890000  1.0 0.1111222411
H  H12  1  0.87480000  0.24310000  0.68890000  1.0 0.1111222411
H  H13  1  0.74310000  0.37480000  0.81110000  1.0 0.1111222411
H  H14  1  0.25690000  0.62520000  0.81110000  1.0 0.1111222411
H  H15  1  0.37480000  0.25690000  0.81110000  1.0 0.1111222411
H  H16  1  0.62520000  0.74310000  0.81110000  1.0 0.1111222411
H  H17  1  0.22620000  0.06490000  0.40430000  1.0 0.1208517629
H  H18  1  0.77380000  0.93510000  0.40430000  1.0 0.1208517629
H  H19  1  0.93510000  0.22620000  0.40430000  1.0 0.1208517629
H  H20  1  0.06490000  0.77380000  0.40430000  1.0 0.1208517629
H  H21  1  0.27380000  0.56490000  0.09570000  1.0 0.1208517629
H  H22  1  0.72620000  0.43510000  0.09570000  1.0 0.1208517629
H  H23  1  0.56490000  0.72620000  0.09570000  1.0 0.1208517629
H  H24  1  0.43510000  0.27380000  0.09570000  1.0 0.1208517629
H  H25  1  0.77380000  0.93510000  0.59570000  1.0 0.1208517629
H  H26  1  0.22620000  0.06490000  0.59570000  1.0 0.1208517629
H  H27  1  0.06490000  0.77380000  0.59570000  1.0 0.1208517629
H  H28  1  0.93510000  0.22620000  0.59570000  1.0 0.1208517629
H  H29  1  0.72620000  0.43510000  0.90430000  1.0 0.1208517629
H  H30  1  0.27380000  0.56490000  0.90430000  1.0 0.1208517629
H  H31  1  0.43510000  0.27380000  0.90430000  1.0 0.1208517629
H  H32  1  0.56490000  0.72620000  0.90430000  1.0 0.1208517629
H  H33  1  0.19340000  0.99340000  0.37950000  1.0 0.1111222411
H  H34  1  0.80660000  0.00660000  0.37950000  1.0 0.1111222411
H  H35  1  0.00660000  0.19340000  0.37950000  1.0 0.1111222411
H  H36  1  0.99340000  0.80660000  0.37950000  1.0 0.1111222411
H  H37  1  0.30660000  0.49340000  0.12050000  1.0 0.1111222411
H  H38  1  0.69340000  0.50660000  0.12050000  1.0 0.1111222411
H  H39  1  0.49340000  0.69340000  0.12050000  1.0 0.1111222411
H  H40  1  0.50660000  0.30660000  0.12050000  1.0 0.1111222411
H  H41  1  0.80660000  0.00660000  0.62050000  1.0 0.1111222411
H  H42  1  0.19340000  0.99340000  0.62050000  1.0 0.1111222411
H  H43  1  0.99340000  0.80660000  0.62050000  1.0 0.1111222411
H  H44  1  0.00660000  0.19340000  0.62050000  1.0 0.1111222411
H  H45  1  0.69340000  0.50660000  0.87950000  1.0 0.1111222411
H  H46  1  0.30660000  0.49340000  0.87950000  1.0 0.1111222411
H  H47  1  0.50660000  0.30660000  0.87950000  1.0 0.1111222411
H  H48  1  0.49340000  0.69340000  0.87950000  1.0 0.1111222411
H  H49  1  0.18550000  0.98710000  0.32160000  1.0 0.1208517629
H  H50  1  0.81450000  0.01290000  0.32160000  1.0 0.1208517629
H  H51  1  0.01290000  0.18550000  0.32160000  1.0 0.1208517629
H  H52  1  0.98710000  0.81450000  0.32160000  1.0 0.1208517629
H  H53  1  0.31450000  0.48710000  0.17840000  1.0 0.1208517629
H  H54  1  0.68550000  0.51290000  0.17840000  1.0 0.1208517629
H  H55  1  0.48710000  0.68550000  0.17840000  1.0 0.1208517629
H  H56  1  0.51290000  0.31450000  0.17840000  1.0 0.1208517629
H  H57  1  0.81450000  0.01290000  0.67840000  1.0 0.1208517629
H  H58  1  0.18550000  0.98710000  0.67840000  1.0 0.1208517629
H  H59  1  0.98710000  0.81450000  0.67840000  1.0 0.1208517629
H  H60  1  0.01290000  0.18550000  0.67840000  1.0 0.1208517629
H  H61  1  0.68550000  0.51290000  0.82160000  1.0 0.1208517629
H  H62  1  0.31450000  0.48710000  0.82160000  1.0 0.1208517629
H  H63  1  0.51290000  0.31450000  0.82160000  1.0 0.1208517629
H  H64  1  0.48710000  0.68550000  0.82160000  1.0 0.1208517629
H  H65  1  0.18890000  0.12540000  0.26540000  1.0 0.1208517629
H  H66  1  0.81110000  0.87460000  0.26540000  1.0 0.1208517629
H  H67  1  0.87460000  0.18890000  0.26540000  1.0 0.1208517629
H  H68  1  0.12540000  0.81110000  0.26540000  1.0 0.1208517629
H  H69  1  0.31110000  0.62540000  0.23460000  1.0 0.1208517629
H  H70  1  0.68890000  0.37460000  0.23460000  1.0 0.1208517629
H  H71  1  0.62540000  0.68890000  0.23460000  1.0 0.1208517629
H  H72  1  0.37460000  0.31110000  0.23460000  1.0 0.1208517629
H  H73  1  0.81110000  0.87460000  0.73460000  1.0 0.1208517629
H  H74  1  0.18890000  0.12540000  0.73460000  1.0 0.1208517629
H  H75  1  0.12540000  0.81110000  0.73460000  1.0 0.1208517629
H  H76  1  0.87460000  0.18890000  0.73460000  1.0 0.1208517629
H  H77  1  0.68890000  0.37460000  0.76540000  1.0 0.1208517629
H  H78  1  0.31110000  0.62540000  0.76540000  1.0 0.1208517629
H  H79  1  0.37460000  0.31110000  0.76540000  1.0 0.1208517629
H  H80  1  0.62540000  0.68890000  0.76540000  1.0 0.1208517629
H  H81  1  0.17230000  0.04340000  0.18070000  1.0 0.1395663479
H  H82  1  0.82770000  0.95660000  0.18070000  1.0 0.1395663479
H  H83  1  0.95660000  0.17230000  0.18070000  1.0 0.1395663479
H  H84  1  0.04340000  0.82770000  0.18070000  1.0 0.1395663479
H  H85  1  0.32770000  0.54340000  0.31930000  1.0 0.1395663479
H  H86  1  0.67230000  0.45660000  0.31930000  1.0 0.1395663479
H  H87  1  0.54340000  0.67230000  0.31930000  1.0 0.1395663479
H  H88  1  0.45660000  0.32770000  0.31930000  1.0 0.1395663479
H  H89  1  0.82770000  0.95660000  0.81930000  1.0 0.1395663479
H  H90  1  0.17230000  0.04340000  0.81930000  1.0 0.1395663479
H  H91  1  0.04340000  0.82770000  0.81930000  1.0 0.1395663479
H  H92  1  0.95660000  0.17230000  0.81930000  1.0 0.1395663479
H  H93  1  0.67230000  0.45660000  0.68070000  1.0 0.1395663479
H  H94  1  0.32770000  0.54340000  0.68070000  1.0 0.1395663479
H  H95  1  0.45660000  0.32770000  0.68070000  1.0 0.1395663479
H  H96  1  0.54340000  0.67230000  0.68070000  1.0 0.1395663479
H  H97  1  0.22150000  0.97890000  0.26680000  1.0 0.1208517629
H  H98  1  0.77850000  0.02110000  0.26680000  1.0 0.1208517629
H  H99  1  0.02110000  0.22150000  0.26680000  1.0 0.1208517629
H  H100  1  0.97890000  0.77850000  0.26680000  1.0 0.1208517629
H  H101  1  0.27850000  0.47890000  0.23320000  1.0 0.1208517629
H  H102  1  0.72150000  0.52110000  0.23320000  1.0 0.1208517629
H  H103  1  0.47890000  0.72150000  0.23320000  1.0 0.1208517629
H  H104  1  0.52110000  0.27850000  0.23320000  1.0 0.1208517629
H  H105  1  0.77850000  0.02110000  0.73320000  1.0 0.1208517629
H  H106  1  0.22150000  0.97890000  0.73320000  1.0 0.1208517629
H  H107  1  0.97890000  0.77850000  0.73320000  1.0 0.1208517629
H  H108  1  0.02110000  0.22150000  0.73320000  1.0 0.1208517629
H  H109  1  0.72150000  0.52110000  0.76680000  1.0 0.1208517629
H  H110  1  0.27850000  0.47890000  0.76680000  1.0 0.1208517629
H  H111  1  0.52110000  0.27850000  0.76680000  1.0 0.1208517629
H  H112  1  0.47890000  0.72150000  0.76680000  1.0 0.1208517629
H  H113  1  0.29290000  0.11260000  0.41640000  1.0 0.1208517629
H  H114  1  0.70710000  0.88740000  0.41640000  1.0 0.1208517629
H  H115  1  0.88740000  0.29290000  0.41640000  1.0 0.1208517629
H  H116  1  0.11260000  0.70710000  0.41640000  1.0 0.1208517629
H  H117  1  0.20710000  0.61260000  0.08360000  1.0 0.1208517629
H  H118  1  0.79290000  0.38740000  0.08360000  1.0 0.1208517629
H  H119  1  0.61260000  0.79290000  0.08360000  1.0 0.1208517629
H  H120  1  0.38740000  0.20710000  0.08360000  1.0 0.1208517629
H  H121  1  0.70710000  0.88740000  0.58360000  1.0 0.1208517629
H  H122  1  0.29290000  0.11260000  0.58360000  1.0 0.1208517629
H  H123  1  0.11260000  0.70710000  0.58360000  1.0 0.1208517629
H  H124  1  0.88740000  0.29290000  0.58360000  1.0 0.1208517629
H  H125  1  0.79290000  0.38740000  0.91640000  1.0 0.1208517629
H  H126  1  0.20710000  0.61260000  0.91640000  1.0 0.1208517629
H  H127  1  0.38740000  0.20710000  0.91640000  1.0 0.1208517629
H  H128  1  0.61260000  0.79290000  0.91640000  1.0 0.1208517629
H  H129  1  0.32270000  0.25970000  0.41690000  1.0 0.1395663479
H  H130  1  0.67730000  0.74030000  0.41690000  1.0 0.1395663479
H  H131  1  0.74030000  0.32270000  0.41690000  1.0 0.1395663479
H  H132  1  0.25970000  0.67730000  0.41690000  1.0 0.1395663479
H  H133  1  0.17730000  0.75970000  0.08310000  1.0 0.1395663479
H  H134  1  0.82270000  0.24030000  0.08310000  1.0 0.1395663479
H  H135  1  0.75970000  0.82270000  0.08310000  1.0 0.1395663479
H  H136  1  0.24030000  0.17730000  0.08310000  1.0 0.1395663479
H  H137  1  0.67730000  0.74030000  0.58310000  1.0 0.1395663479
H  H138  1  0.32270000  0.25970000  0.58310000  1.0 0.1395663479
H  H139  1  0.25970000  0.67730000  0.58310000  1.0 0.1395663479
H  H140  1  0.74030000  0.32270000  0.58310000  1.0 0.1395663479
H  H141  1  0.82270000  0.24030000  0.91690000  1.0 0.1395663479
H  H142  1  0.17730000  0.75970000  0.91690000  1.0 0.1395663479
H  H143  1  0.24030000  0.17730000  0.91690000  1.0 0.1395663479
H  H144  1  0.75970000  0.82270000  0.91690000  1.0 0.1395663479
H  H145  1  0.23870000  0.20050000  0.34200000  1.0 0.1208517629
H  H146  1  0.76130000  0.79950000  0.34200000  1.0 0.1208517629
H  H147  1  0.79950000  0.23870000  0.34200000  1.0 0.1208517629
H  H148  1  0.20050000  0.76130000  0.34200000  1.0 0.1208517629
H  H149  1  0.26130000  0.70050000  0.15800000  1.0 0.1208517629
H  H150  1  0.73870000  0.29950000  0.15800000  1.0 0.1208517629
H  H151  1  0.70050000  0.73870000  0.15800000  1.0 0.1208517629
H  H152  1  0.29950000  0.26130000  0.15800000  1.0 0.1208517629
H  H153  1  0.76130000  0.79950000  0.65800000  1.0 0.1208517629
H  H154  1  0.23870000  0.20050000  0.65800000  1.0 0.1208517629
H  H155  1  0.20050000  0.76130000  0.65800000  1.0 0.1208517629
H  H156  1  0.79950000  0.23870000  0.65800000  1.0 0.1208517629
H  H157  1  0.73870000  0.29950000  0.84200000  1.0 0.1208517629
H  H158  1  0.26130000  0.70050000  0.84200000  1.0 0.1208517629
H  H159  1  0.29950000  0.26130000  0.84200000  1.0 0.1208517629
H  H160  1  0.70050000  0.73870000  0.84200000  1.0 0.1208517629
H  H161  1  0.00000000  0.50000000  0.10590000  1.0 0.1042800636
H  H162  1  0.50000000  0.00000000  0.10590000  1.0 0.1042800636
H  H163  1  0.50000000  0.00000000  0.39410000  1.0 0.1042800636
H  H164  1  0.00000000  0.50000000  0.39410000  1.0 0.1042800636
H  H165  1  0.00000000  0.50000000  0.89410000  1.0 0.1042800636
H  H166  1  0.50000000  0.00000000  0.89410000  1.0 0.1042800636
H  H167  1  0.50000000  0.00000000  0.60590000  1.0 0.1042800636
H  H168  1  0.00000000  0.50000000  0.60590000  1.0 0.1042800636
H  H169  1  0.05520000  0.44400000  0.19020000  1.0 0.0802139053
H  H170  1  0.94480000  0.55600000  0.19020000  1.0 0.0802139053
H  H171  1  0.55600000  0.05520000  0.19020000  1.0 0.0802139053
H  H172  1  0.44400000  0.94480000  0.19020000  1.0 0.0802139053
H  H173  1  0.44480000  0.94400000  0.30980000  1.0 0.0802139053
H  H174  1  0.55520000  0.05600000  0.30980000  1.0 0.0802139053
H  H175  1  0.94400000  0.55520000  0.30980000  1.0 0.0802139053
H  H176  1  0.05600000  0.44480000  0.30980000  1.0 0.0802139053
H  H177  1  0.94480000  0.55600000  0.80980000  1.0 0.0802139053
H  H178  1  0.05520000  0.44400000  0.80980000  1.0 0.0802139053
H  H179  1  0.44400000  0.94480000  0.80980000  1.0 0.0802139053
H  H180  1  0.55600000  0.05520000  0.80980000  1.0 0.0802139053
H  H181  1  0.55520000  0.05600000  0.69020000  1.0 0.0802139053
H  H182  1  0.44480000  0.94400000  0.69020000  1.0 0.0802139053
H  H183  1  0.05600000  0.44480000  0.69020000  1.0 0.0802139053
H  H184  1  0.94400000  0.55520000  0.69020000  1.0 0.0802139053
H  H185  1  0.06770000  0.37520000  0.16010000  1.0 0.1208517629
H  H186  1  0.93230000  0.62480000  0.16010000  1.0 0.1208517629
H  H187  1  0.62480000  0.06770000  0.16010000  1.0 0.1208517629
H  H188  1  0.37520000  0.93230000  0.16010000  1.0 0.1208517629
H  H189  1  0.43230000  0.87520000  0.33990000  1.0 0.1208517629
H  H190  1  0.56770000  0.12480000  0.33990000  1.0 0.1208517629
H  H191  1  0.87520000  0.56770000  0.33990000  1.0 0.1208517629
H  H192  1  0.12480000  0.43230000  0.33990000  1.0 0.1208517629
H  H193  1  0.93230000  0.62480000  0.83990000  1.0 0.1208517629
H  H194  1  0.06770000  0.37520000  0.83990000  1.0 0.1208517629
H  H195  1  0.37520000  0.93230000  0.83990000  1.0 0.1208517629
H  H196  1  0.62480000  0.06770000  0.83990000  1.0 0.1208517629
H  H197  1  0.56770000  0.12480000  0.66010000  1.0 0.1208517629
H  H198  1  0.43230000  0.87520000  0.66010000  1.0 0.1208517629
H  H199  1  0.12480000  0.43230000  0.66010000  1.0 0.1208517629
H  H200  1  0.87520000  0.56770000  0.66010000  1.0 0.1208517629
H  H201  1  0.03370000  0.28780000  0.08030000  1.0 0.1395663479
H  H202  1  0.96630000  0.71220000  0.08030000  1.0 0.1395663479
H  H203  1  0.71220000  0.03370000  0.08030000  1.0 0.1395663479
H  H204  1  0.28780000  0.96630000  0.08030000  1.0 0.1395663479
H  H205  1  0.46630000  0.78780000  0.41970000  1.0 0.1395663479
H  H206  1  0.53370000  0.21220000  0.41970000  1.0 0.1395663479
H  H207  1  0.78780000  0.53370000  0.41970000  1.0 0.1395663479
H  H208  1  0.21220000  0.46630000  0.41970000  1.0 0.1395663479
H  H209  1  0.96630000  0.71220000  0.91970000  1.0 0.1395663479
H  H210  1  0.03370000  0.28780000  0.91970000  1.0 0.1395663479
H  H211  1  0.28780000  0.96630000  0.91970000  1.0 0.1395663479
H  H212  1  0.71220000  0.03370000  0.91970000  1.0 0.1395663479
H  H213  1  0.53370000  0.21220000  0.58030000  1.0 0.1395663479
H  H214  1  0.46630000  0.78780000  0.58030000  1.0 0.1395663479
H  H215  1  0.21220000  0.46630000  0.58030000  1.0 0.1395663479
H  H216  1  0.78780000  0.53370000  0.58030000  1.0 0.1395663479
H  H217  1  0.97350000  0.42500000  0.08830000  1.0 0.1315980811
H  H218  1  0.02650000  0.57500000  0.08830000  1.0 0.1315980811
H  H219  1  0.57500000  0.97350000  0.08830000  1.0 0.1315980811
H  H220  1  0.42500000  0.02650000  0.08830000  1.0 0.1315980811
H  H221  1  0.52650000  0.92500000  0.41170000  1.0 0.1315980811
H  H222  1  0.47350000  0.07500000  0.41170000  1.0 0.1315980811
H  H223  1  0.92500000  0.47350000  0.41170000  1.0 0.1315980811
H  H224  1  0.07500000  0.52650000  0.41170000  1.0 0.1315980811
H  H225  1  0.02650000  0.57500000  0.91170000  1.0 0.1315980811
H  H226  1  0.97350000  0.42500000  0.91170000  1.0 0.1315980811
H  H227  1  0.42500000  0.02650000  0.91170000  1.0 0.1315980811
H  H228  1  0.57500000  0.97350000  0.91170000  1.0 0.1315980811
H  H229  1  0.47350000  0.07500000  0.58830000  1.0 0.1315980811
H  H230  1  0.52650000  0.92500000  0.58830000  1.0 0.1315980811
H  H231  1  0.07500000  0.52650000  0.58830000  1.0 0.1315980811
H  H232  1  0.92500000  0.47350000  0.58830000  1.0 0.1315980811
H  H233  1  0.22140000  0.27860000  0.25000000  1.0 0.1208517629
H  H234  1  0.77860000  0.72140000  0.25000000  1.0 0.1208517629
H  H235  1  0.72140000  0.22140000  0.25000000  1.0 0.1208517629
H  H236  1  0.27860000  0.77860000  0.25000000  1.0 0.1208517629
H  H237  1  0.77860000  0.72140000  0.75000000  1.0 0.1208517629
H  H238  1  0.22140000  0.27860000  0.75000000  1.0 0.1208517629
H  H239  1  0.27860000  0.77860000  0.75000000  1.0 0.1208517629
H  H240  1  0.72140000  0.22140000  0.75000000  1.0 0.1208517629
H  H241  1  0.00000000  0.50000000  0.22250000  1.0 0.0692540031
H  H242  1  0.50000000  0.00000000  0.22250000  1.0 0.0692540031
H  H243  1  0.50000000  0.00000000  0.27750000  1.0 0.0692540031
H  H244  1  0.00000000  0.50000000  0.27750000  1.0 0.0692540031
H  H245  1  0.00000000  0.50000000  0.77750000  1.0 0.0692540031
H  H246  1  0.50000000  0.00000000  0.77750000  1.0 0.0692540031
H  H247  1  0.50000000  0.00000000  0.72250000  1.0 0.0692540031
H  H248  1  0.00000000  0.50000000  0.72250000  1.0 0.0692540031
H  H249  1  0.01200000  0.42590000  0.19620000  1.0 0.0802139053
H  H250  1  0.98800000  0.57410000  0.19620000  1.0 0.0802139053
H  H251  1  0.57410000  0.01200000  0.19620000  1.0 0.0802139053
H  H252  1  0.42590000  0.98800000  0.19620000  1.0 0.0802139053
H  H253  1  0.48800000  0.92590000  0.30380000  1.0 0.0802139053
H  H254  1  0.51200000  0.07410000  0.30380000  1.0 0.0802139053
H  H255  1  0.92590000  0.51200000  0.30380000  1.0 0.0802139053
H  H256  1  0.07410000  0.48800000  0.30380000  1.0 0.0802139053
H  H257  1  0.98800000  0.57410000  0.80380000  1.0 0.0802139053
H  H258  1  0.01200000  0.42590000  0.80380000  1.0 0.0802139053
H  H259  1  0.42590000  0.98800000  0.80380000  1.0 0.0802139053
H  H260  1  0.57410000  0.01200000  0.80380000  1.0 0.0802139053
H  H261  1  0.51200000  0.07410000  0.69620000  1.0 0.0802139053
H  H262  1  0.48800000  0.92590000  0.69620000  1.0 0.0802139053
H  H263  1  0.07410000  0.48800000  0.69620000  1.0 0.0802139053
H  H264  1  0.92590000  0.51200000  0.69620000  1.0 0.0802139053
C  C1  1  0.21314000  0.05572000  0.31026000  1.0 0.0802139053
C  C2  1  0.78686000  0.94428000  0.31026000  1.0 0.0802139053
C  C3  1  0.94428000  0.21314000  0.31026000  1.0 0.0802139053
C  C4  1  0.05572000  0.78686000  0.31026000  1.0 0.0802139053
C  C5  1  0.28686000  0.55572000  0.18974000  1.0 0.0802139053
C  C6  1  0.71314000  0.44428000  0.18974000  1.0 0.0802139053
C  C7  1  0.55572000  0.71314000  0.18974000  1.0 0.0802139053
C  C8  1  0.44428000  0.28686000  0.18974000  1.0 0.0802139053
C  C9  1  0.78686000  0.94428000  0.68974000  1.0 0.0802139053
C  C10  1  0.21314000  0.05572000  0.68974000  1.0 0.0802139053
C  C11  1  0.05572000  0.78686000  0.68974000  1.0 0.0802139053
C  C12  1  0.94428000  0.21314000  0.68974000  1.0 0.0802139053
C  C13  1  0.71314000  0.44428000  0.81026000  1.0 0.0802139053
C  C14  1  0.28686000  0.55572000  0.81026000  1.0 0.0802139053
C  C15  1  0.44428000  0.28686000  0.81026000  1.0 0.0802139053
C  C16  1  0.55572000  0.71314000  0.81026000  1.0 0.0802139053
C  C17  1  0.23290000  0.09871000  0.32500000  1.0 -0.1997504722
C  C18  1  0.76710000  0.90129000  0.32500000  1.0 -0.1997504722
C  C19  1  0.90129000  0.23290000  0.32500000  1.0 -0.1997504722
C  C20  1  0.09871000  0.76710000  0.32500000  1.0 -0.1997504722
C  C21  1  0.26710000  0.59871000  0.17500000  1.0 -0.1997504722
C  C22  1  0.73290000  0.40129000  0.17500000  1.0 -0.1997504722
C  C23  1  0.59871000  0.73290000  0.17500000  1.0 -0.1997504722
C  C24  1  0.40129000  0.26710000  0.17500000  1.0 -0.1997504722
C  C25  1  0.76710000  0.90129000  0.67500000  1.0 -0.1997504722
C  C26  1  0.23290000  0.09871000  0.67500000  1.0 -0.1997504722
C  C27  1  0.09871000  0.76710000  0.67500000  1.0 -0.1997504722
C  C28  1  0.90129000  0.23290000  0.67500000  1.0 -0.1997504722
C  C29  1  0.73290000  0.40129000  0.82500000  1.0 -0.1997504722
C  C30  1  0.26710000  0.59871000  0.82500000  1.0 -0.1997504722
C  C31  1  0.40129000  0.26710000  0.82500000  1.0 -0.1997504722
C  C32  1  0.59871000  0.73290000  0.82500000  1.0 -0.1997504722
C  C33  1  0.23794000  0.10327000  0.36037000  1.0 0.0802139053
C  C34  1  0.76206000  0.89673000  0.36037000  1.0 0.0802139053
C  C35  1  0.89673000  0.23794000  0.36037000  1.0 0.0802139053
C  C36  1  0.10327000  0.76206000  0.36037000  1.0 0.0802139053
C  C37  1  0.26206000  0.60327000  0.13963000  1.0 0.0802139053
C  C38  1  0.73794000  0.39673000  0.13963000  1.0 0.0802139053
C  C39  1  0.60327000  0.73794000  0.13963000  1.0 0.0802139053
C  C40  1  0.39673000  0.26206000  0.13963000  1.0 0.0802139053
C  C41  1  0.76206000  0.89673000  0.63963000  1.0 0.0802139053
C  C42  1  0.23794000  0.10327000  0.63963000  1.0 0.0802139053
C  C43  1  0.10327000  0.76206000  0.63963000  1.0 0.0802139053
C  C44  1  0.89673000  0.23794000  0.63963000  1.0 0.0802139053
C  C45  1  0.73794000  0.39673000  0.86037000  1.0 0.0802139053
C  C46  1  0.26206000  0.60327000  0.86037000  1.0 0.0802139053
C  C47  1  0.39673000  0.26206000  0.86037000  1.0 0.0802139053
C  C48  1  0.60327000  0.73794000  0.86037000  1.0 0.0802139053
C  C49  1  0.22303000  0.06295000  0.38071000  1.0 -0.1600231392
C  C50  1  0.77697000  0.93705000  0.38071000  1.0 -0.1600231392
C  C51  1  0.93705000  0.22303000  0.38071000  1.0 -0.1600231392
C  C52  1  0.06295000  0.77697000  0.38071000  1.0 -0.1600231392
C  C53  1  0.27697000  0.56295000  0.11929000  1.0 -0.1600231392
C  C54  1  0.72303000  0.43705000  0.11929000  1.0 -0.1600231392
C  C55  1  0.56295000  0.72303000  0.11929000  1.0 -0.1600231392
C  C56  1  0.43705000  0.27697000  0.11929000  1.0 -0.1600231392
C  C57  1  0.77697000  0.93705000  0.61929000  1.0 -0.1600231392
C  C58  1  0.22303000  0.06295000  0.61929000  1.0 -0.1600231392
C  C59  1  0.06295000  0.77697000  0.61929000  1.0 -0.1600231392
C  C60  1  0.93705000  0.22303000  0.61929000  1.0 -0.1600231392
C  C61  1  0.72303000  0.43705000  0.88071000  1.0 -0.1600231392
C  C62  1  0.27697000  0.56295000  0.88071000  1.0 -0.1600231392
C  C63  1  0.43705000  0.27697000  0.88071000  1.0 -0.1600231392
C  C64  1  0.56295000  0.72303000  0.88071000  1.0 -0.1600231392
C  C65  1  0.20347000  0.02010000  0.36577000  1.0 -0.0807988633
C  C66  1  0.79653000  0.97990000  0.36577000  1.0 -0.0807988633
C  C67  1  0.97990000  0.20347000  0.36577000  1.0 -0.0807988633
C  C68  1  0.02010000  0.79653000  0.36577000  1.0 -0.0807988633
C  C69  1  0.29653000  0.52010000  0.13423000  1.0 -0.0807988633
C  C70  1  0.70347000  0.47990000  0.13423000  1.0 -0.0807988633
C  C71  1  0.52010000  0.70347000  0.13423000  1.0 -0.0807988633
C  C72  1  0.47990000  0.29653000  0.13423000  1.0 -0.0807988633
C  C73  1  0.79653000  0.97990000  0.63423000  1.0 -0.0807988633
C  C74  1  0.20347000  0.02010000  0.63423000  1.0 -0.0807988633
C  C75  1  0.02010000  0.79653000  0.63423000  1.0 -0.0807988633
C  C76  1  0.97990000  0.20347000  0.63423000  1.0 -0.0807988633
C  C77  1  0.70347000  0.47990000  0.86577000  1.0 -0.0807988633
C  C78  1  0.29653000  0.52010000  0.86577000  1.0 -0.0807988633
C  C79  1  0.47990000  0.29653000  0.86577000  1.0 -0.0807988633
C  C80  1  0.52010000  0.70347000  0.86577000  1.0 -0.0807988633
C  C81  1  0.19863000  0.01628000  0.33117000  1.0 -0.1600231392
C  C82  1  0.80137000  0.98372000  0.33117000  1.0 -0.1600231392
C  C83  1  0.98372000  0.19863000  0.33117000  1.0 -0.1600231392
C  C84  1  0.01628000  0.80137000  0.33117000  1.0 -0.1600231392
C  C85  1  0.30137000  0.51628000  0.16883000  1.0 -0.1600231392
C  C86  1  0.69863000  0.48372000  0.16883000  1.0 -0.1600231392
C  C87  1  0.51628000  0.69863000  0.16883000  1.0 -0.1600231392
C  C88  1  0.48372000  0.30137000  0.16883000  1.0 -0.1600231392
C  C89  1  0.80137000  0.98372000  0.66883000  1.0 -0.1600231392
C  C90  1  0.19863000  0.01628000  0.66883000  1.0 -0.1600231392
C  C91  1  0.01628000  0.80137000  0.66883000  1.0 -0.1600231392
C  C92  1  0.98372000  0.19863000  0.66883000  1.0 -0.1600231392
C  C93  1  0.69863000  0.48372000  0.83117000  1.0 -0.1600231392
C  C94  1  0.30137000  0.51628000  0.83117000  1.0 -0.1600231392
C  C95  1  0.48372000  0.30137000  0.83117000  1.0 -0.1600231392
C  C96  1  0.51628000  0.69863000  0.83117000  1.0 -0.1600231392
C  C97  1  0.20561000  0.05247000  0.27258000  1.0 0.0632309742
C  C98  1  0.79439000  0.94753000  0.27258000  1.0 0.0632309742
C  C99  1  0.94753000  0.20561000  0.27258000  1.0 0.0632309742
C  C100  1  0.05247000  0.79439000  0.27258000  1.0 0.0632309742
C  C101  1  0.29439000  0.55247000  0.22742000  1.0 0.0632309742
C  C102  1  0.70561000  0.44753000  0.22742000  1.0 0.0632309742
C  C103  1  0.55247000  0.70561000  0.22742000  1.0 0.0632309742
C  C104  1  0.44753000  0.29439000  0.22742000  1.0 0.0632309742
C  C105  1  0.79439000  0.94753000  0.72742000  1.0 0.0632309742
C  C106  1  0.20561000  0.05247000  0.72742000  1.0 0.0632309742
C  C107  1  0.05247000  0.79439000  0.72742000  1.0 0.0632309742
C  C108  1  0.94753000  0.20561000  0.72742000  1.0 0.0632309742
C  C109  1  0.70561000  0.44753000  0.77258000  1.0 0.0632309742
C  C110  1  0.29439000  0.55247000  0.77258000  1.0 0.0632309742
C  C111  1  0.44753000  0.29439000  0.77258000  1.0 0.0632309742
C  C112  1  0.55247000  0.70561000  0.77258000  1.0 0.0632309742
C  C113  1  0.19069000  0.09445000  0.25435000  1.0 -0.1473104063
C  C114  1  0.80931000  0.90555000  0.25435000  1.0 -0.1473104063
C  C115  1  0.90555000  0.19069000  0.25435000  1.0 -0.1473104063
C  C116  1  0.09445000  0.80931000  0.25435000  1.0 -0.1473104063
C  C117  1  0.30931000  0.59445000  0.24565000  1.0 -0.1473104063
C  C118  1  0.69069000  0.40555000  0.24565000  1.0 -0.1473104063
C  C119  1  0.59445000  0.69069000  0.24565000  1.0 -0.1473104063
C  C120  1  0.40555000  0.30931000  0.24565000  1.0 -0.1473104063
C  C121  1  0.80931000  0.90555000  0.74565000  1.0 -0.1473104063
C  C122  1  0.19069000  0.09445000  0.74565000  1.0 -0.1473104063
C  C123  1  0.09445000  0.80931000  0.74565000  1.0 -0.1473104063
C  C124  1  0.90555000  0.19069000  0.74565000  1.0 -0.1473104063
C  C125  1  0.69069000  0.40555000  0.75435000  1.0 -0.1473104063
C  C126  1  0.30931000  0.59445000  0.75435000  1.0 -0.1473104063
C  C127  1  0.40555000  0.30931000  0.75435000  1.0 -0.1473104063
C  C128  1  0.59445000  0.69069000  0.75435000  1.0 -0.1473104063
C  C129  1  0.17833000  0.09145000  0.21998000  1.0 -0.0126535393
C  C130  1  0.82167000  0.90855000  0.21998000  1.0 -0.0126535393
C  C131  1  0.90855000  0.17833000  0.21998000  1.0 -0.0126535393
C  C132  1  0.09145000  0.82167000  0.21998000  1.0 -0.0126535393
C  C133  1  0.32167000  0.59145000  0.28002000  1.0 -0.0126535393
C  C134  1  0.67833000  0.40855000  0.28002000  1.0 -0.0126535393
C  C135  1  0.59145000  0.67833000  0.28002000  1.0 -0.0126535393
C  C136  1  0.40855000  0.32167000  0.28002000  1.0 -0.0126535393
C  C137  1  0.82167000  0.90855000  0.78002000  1.0 -0.0126535393
C  C138  1  0.17833000  0.09145000  0.78002000  1.0 -0.0126535393
C  C139  1  0.09145000  0.82167000  0.78002000  1.0 -0.0126535393
C  C140  1  0.90855000  0.17833000  0.78002000  1.0 -0.0126535393
C  C141  1  0.67833000  0.40855000  0.71998000  1.0 -0.0126535393
C  C142  1  0.32167000  0.59145000  0.71998000  1.0 -0.0126535393
C  C143  1  0.40855000  0.32167000  0.71998000  1.0 -0.0126535393
C  C144  1  0.59145000  0.67833000  0.71998000  1.0 -0.0126535393
C  C145  1  0.18148000  0.04577000  0.20352000  1.0 -0.1051728402
C  C146  1  0.81852000  0.95423000  0.20352000  1.0 -0.1051728402
C  C147  1  0.95423000  0.18148000  0.20352000  1.0 -0.1051728402
C  C148  1  0.04577000  0.81852000  0.20352000  1.0 -0.1051728402
C  C149  1  0.31852000  0.54577000  0.29648000  1.0 -0.1051728402
C  C150  1  0.68148000  0.45423000  0.29648000  1.0 -0.1051728402
C  C151  1  0.54577000  0.68148000  0.29648000  1.0 -0.1051728402
C  C152  1  0.45423000  0.31852000  0.29648000  1.0 -0.1051728402
C  C153  1  0.81852000  0.95423000  0.79648000  1.0 -0.1003501059
C  C154  1  0.18148000  0.04577000  0.79648000  1.0 -0.1003501059
C  C155  1  0.04577000  0.81852000  0.79648000  1.0 -0.1051728402
C  C156  1  0.95423000  0.18148000  0.79648000  1.0 -0.1003501059
C  C157  1  0.68148000  0.45423000  0.70352000  1.0 -0.1003501059
C  C158  1  0.31852000  0.54577000  0.70352000  1.0 -0.1003501059
C  C159  1  0.45423000  0.31852000  0.70352000  1.0 -0.1003501059
C  C160  1  0.54577000  0.68148000  0.70352000  1.0 -0.1003501059
C  C161  1  0.19816000  0.00340000  0.22069000  1.0 -0.0126535393
C  C162  1  0.80184000  0.99660000  0.22069000  1.0 -0.0126535393
C  C163  1  0.99660000  0.19816000  0.22069000  1.0 -0.0126535393
C  C164  1  0.00340000  0.80184000  0.22069000  1.0 -0.0126535393
C  C165  1  0.30184000  0.50340000  0.27931000  1.0 -0.0126535393
C  C166  1  0.69816000  0.49660000  0.27931000  1.0 -0.0126535393
C  C167  1  0.50340000  0.69816000  0.27931000  1.0 -0.0126535393
C  C168  1  0.49660000  0.30184000  0.27931000  1.0 -0.0126535393
C  C169  1  0.80184000  0.99660000  0.77931000  1.0 -0.0126535393
C  C170  1  0.19816000  0.00340000  0.77931000  1.0 -0.0126535393
C  C171  1  0.00340000  0.80184000  0.77931000  1.0 -0.0126535393
C  C172  1  0.99660000  0.19816000  0.77931000  1.0 -0.0126535393
C  C173  1  0.69816000  0.49660000  0.72069000  1.0 -0.0126535393
C  C174  1  0.30184000  0.50340000  0.72069000  1.0 -0.0126535393
C  C175  1  0.49660000  0.30184000  0.72069000  1.0 -0.0126535393
C  C176  1  0.50340000  0.69816000  0.72069000  1.0 -0.0126535393
C  C177  1  0.21017000  0.00727000  0.25517000  1.0 -0.1419182442
C  C178  1  0.78983000  0.99273000  0.25517000  1.0 -0.1419182442
C  C179  1  0.99273000  0.21017000  0.25517000  1.0 -0.1419182442
C  C180  1  0.00727000  0.78983000  0.25517000  1.0 -0.1419182442
C  C181  1  0.28983000  0.50727000  0.24483000  1.0 -0.1419182442
C  C182  1  0.71017000  0.49273000  0.24483000  1.0 -0.1419182442
C  C183  1  0.50727000  0.71017000  0.24483000  1.0 -0.1419182442
C  C184  1  0.49273000  0.28983000  0.24483000  1.0 -0.1419182442
C  C185  1  0.78983000  0.99273000  0.74483000  1.0 -0.1419182442
C  C186  1  0.21017000  0.00727000  0.74483000  1.0 -0.1419182442
C  C187  1  0.00727000  0.78983000  0.74483000  1.0 -0.1419182442
C  C188  1  0.99273000  0.21017000  0.74483000  1.0 -0.1419182442
C  C189  1  0.71017000  0.49273000  0.75517000  1.0 -0.1419182442
C  C190  1  0.28983000  0.50727000  0.75517000  1.0 -0.1419182442
C  C191  1  0.49273000  0.28983000  0.75517000  1.0 -0.1419182442
C  C192  1  0.50727000  0.71017000  0.75517000  1.0 -0.1419182442
C  C193  1  0.16054000  0.13724000  0.20092000  1.0 0.5824079126
C  C194  1  0.83946000  0.86276000  0.20092000  1.0 0.5824079126
C  C195  1  0.86276000  0.16054000  0.20092000  1.0 0.5824079126
C  C196  1  0.13724000  0.83946000  0.20092000  1.0 0.5824079126
C  C197  1  0.33946000  0.63724000  0.29908000  1.0 0.5824079126
C  C198  1  0.66054000  0.36276000  0.29908000  1.0 0.5824079126
C  C199  1  0.63724000  0.66054000  0.29908000  1.0 0.5824079126
C  C200  1  0.36276000  0.33946000  0.29908000  1.0 0.5824079126
C  C201  1  0.83946000  0.86276000  0.79908000  1.0 0.5824079126
C  C202  1  0.16054000  0.13724000  0.79908000  1.0 0.5824079126
C  C203  1  0.13724000  0.83946000  0.79908000  1.0 0.5824079126
C  C204  1  0.86276000  0.16054000  0.79908000  1.0 0.5824079126
C  C205  1  0.66054000  0.36276000  0.70092000  1.0 0.5824079126
C  C206  1  0.33946000  0.63724000  0.70092000  1.0 0.5824079126
C  C207  1  0.36276000  0.33946000  0.70092000  1.0 0.5824079126
C  C208  1  0.63724000  0.66054000  0.70092000  1.0 0.5824079126
C  C209  1  0.20402000  0.95430000  0.20200000  1.0 0.5824079126
C  C210  1  0.79598000  0.04570000  0.20200000  1.0 0.5824079126
C  C211  1  0.04570000  0.20402000  0.20200000  1.0 0.5824079126
C  C212  1  0.95430000  0.79598000  0.20200000  1.0 0.5824079126
C  C213  1  0.29598000  0.45430000  0.29800000  1.0 0.5824079126
C  C214  1  0.70402000  0.54570000  0.29800000  1.0 0.5824079126
C  C215  1  0.45430000  0.70402000  0.29800000  1.0 0.5824079126
C  C216  1  0.54570000  0.29598000  0.29800000  1.0 0.5824079126
C  C217  1  0.79598000  0.04570000  0.79800000  1.0 0.5824079126
C  C218  1  0.20402000  0.95430000  0.79800000  1.0 0.5824079126
C  C219  1  0.95430000  0.79598000  0.79800000  1.0 0.5824079126
C  C220  1  0.04570000  0.20402000  0.79800000  1.0 0.5824079126
C  C221  1  0.70402000  0.54570000  0.70200000  1.0 0.5824079126
C  C222  1  0.29598000  0.45430000  0.70200000  1.0 0.5824079126
C  C223  1  0.54570000  0.29598000  0.70200000  1.0 0.5824079126
C  C224  1  0.45430000  0.70402000  0.70200000  1.0 0.5824079126
C  C225  1  0.26114000  0.14849000  0.37651000  1.0 0.0632309742
C  C226  1  0.73886000  0.85151000  0.37651000  1.0 0.0632309742
C  C227  1  0.85151000  0.26114000  0.37651000  1.0 0.0632309742
C  C228  1  0.14849000  0.73886000  0.37651000  1.0 0.0632309742
C  C229  1  0.23886000  0.64849000  0.12349000  1.0 0.0632309742
C  C230  1  0.76114000  0.35151000  0.12349000  1.0 0.0632309742
C  C231  1  0.64849000  0.76114000  0.12349000  1.0 0.0632309742
C  C232  1  0.35151000  0.23886000  0.12349000  1.0 0.0632309742
C  C233  1  0.73886000  0.85151000  0.62349000  1.0 0.0632309742
C  C234  1  0.26114000  0.14849000  0.62349000  1.0 0.0632309742
C  C235  1  0.14849000  0.73886000  0.62349000  1.0 0.0632309742
C  C236  1  0.85151000  0.26114000  0.62349000  1.0 0.0632309742
C  C237  1  0.76114000  0.35151000  0.87651000  1.0 0.0632309742
C  C238  1  0.23886000  0.64849000  0.87651000  1.0 0.0632309742
C  C239  1  0.35151000  0.23886000  0.87651000  1.0 0.0632309742
C  C240  1  0.64849000  0.76114000  0.87651000  1.0 0.0632309742
C  C241  1  0.28920000  0.14411000  0.40642000  1.0 -0.1329265333
C  C242  1  0.71080000  0.85589000  0.40642000  1.0 -0.1329265333
C  C243  1  0.85589000  0.28920000  0.40642000  1.0 -0.1329265333
C  C244  1  0.14411000  0.71080000  0.40642000  1.0 -0.1329265333
C  C245  1  0.21080000  0.64411000  0.09358000  1.0 -0.1329265333
C  C246  1  0.78920000  0.35589000  0.09358000  1.0 -0.1329265333
C  C247  1  0.64411000  0.78920000  0.09358000  1.0 -0.1329265333
C  C248  1  0.35589000  0.21080000  0.09358000  1.0 -0.1329265333
C  C249  1  0.71080000  0.85589000  0.59358000  1.0 -0.1329265333
C  C250  1  0.28920000  0.14411000  0.59358000  1.0 -0.1329265333
C  C251  1  0.14411000  0.71080000  0.59358000  1.0 -0.1329265333
C  C252  1  0.85589000  0.28920000  0.59358000  1.0 -0.1329265333
C  C253  1  0.78920000  0.35589000  0.90642000  1.0 -0.1329265333
C  C254  1  0.21080000  0.64411000  0.90642000  1.0 -0.1329265333
C  C255  1  0.35589000  0.21080000  0.90642000  1.0 -0.1329265333
C  C256  1  0.64411000  0.78920000  0.90642000  1.0 -0.1329265333
C  C257  1  0.31138000  0.18468000  0.42158000  1.0 -0.0212977778
C  C258  1  0.68862000  0.81532000  0.42158000  1.0 -0.0212977778
C  C259  1  0.81532000  0.31138000  0.42158000  1.0 -0.0212977778
C  C260  1  0.18468000  0.68862000  0.42158000  1.0 -0.0212977778
C  C261  1  0.18862000  0.68468000  0.07842000  1.0 -0.0212977778
C  C262  1  0.81138000  0.31532000  0.07842000  1.0 -0.0212977778
C  C263  1  0.68468000  0.81138000  0.07842000  1.0 -0.0212977778
C  C264  1  0.31532000  0.18862000  0.07842000  1.0 -0.0212977778
C  C265  1  0.68862000  0.81532000  0.57842000  1.0 -0.0212977778
C  C266  1  0.31138000  0.18468000  0.57842000  1.0 -0.0212977778
C  C267  1  0.18468000  0.68862000  0.57842000  1.0 -0.0212977778
C  C268  1  0.81532000  0.31138000  0.57842000  1.0 -0.0212977778
C  C269  1  0.81138000  0.31532000  0.92158000  1.0 -0.0212977778
C  C270  1  0.18862000  0.68468000  0.92158000  1.0 -0.0212977778
C  C271  1  0.31532000  0.18862000  0.92158000  1.0 -0.0212977778
C  C272  1  0.68468000  0.81138000  0.92158000  1.0 -0.0212977778
C  C273  1  0.30734000  0.23207000  0.40675000  1.0 -0.1003501059
C  C274  1  0.69266000  0.76793000  0.40675000  1.0 -0.1003501059
C  C275  1  0.76793000  0.30734000  0.40675000  1.0 -0.1003501059
C  C276  1  0.23207000  0.69266000  0.40675000  1.0 -0.1003501059
C  C277  1  0.19266000  0.73207000  0.09325000  1.0 -0.1003501059
C  C278  1  0.80734000  0.26793000  0.09325000  1.0 -0.1003501059
C  C279  1  0.73207000  0.80734000  0.09325000  1.0 -0.1003501059
C  C280  1  0.26793000  0.19266000  0.09325000  1.0 -0.1003501059
C  C281  1  0.69266000  0.76793000  0.59325000  1.0 -0.1003501059
C  C282  1  0.30734000  0.23207000  0.59325000  1.0 -0.1003501059
C  C283  1  0.23207000  0.69266000  0.59325000  1.0 -0.1003501059
C  C284  1  0.76793000  0.30734000  0.59325000  1.0 -0.1003501059
C  C285  1  0.80734000  0.26793000  0.90675000  1.0 -0.1003501059
C  C286  1  0.19266000  0.73207000  0.90675000  1.0 -0.1003501059
C  C287  1  0.26793000  0.19266000  0.90675000  1.0 -0.1003501059
C  C288  1  0.73207000  0.80734000  0.90675000  1.0 -0.1003501059
C  C289  1  0.28003000  0.23781000  0.37653000  1.0 -0.0126535393
C  C290  1  0.71997000  0.76219000  0.37653000  1.0 -0.0126535393
C  C291  1  0.76219000  0.28003000  0.37653000  1.0 -0.0126535393
C  C292  1  0.23781000  0.71997000  0.37653000  1.0 -0.0126535393
C  C293  1  0.21997000  0.73781000  0.12347000  1.0 -0.0126535393
C  C294  1  0.78003000  0.26219000  0.12347000  1.0 -0.0126535393
C  C295  1  0.73781000  0.78003000  0.12347000  1.0 -0.0126535393
C  C296  1  0.26219000  0.21997000  0.12347000  1.0 -0.0126535393
C  C297  1  0.71997000  0.76219000  0.62347000  1.0 -0.0126535393
C  C298  1  0.28003000  0.23781000  0.62347000  1.0 -0.0126535393
C  C299  1  0.23781000  0.71997000  0.62347000  1.0 -0.0126535393
C  C300  1  0.76219000  0.28003000  0.62347000  1.0 -0.0126535393
C  C301  1  0.78003000  0.26219000  0.87653000  1.0 -0.0126535393
C  C302  1  0.21997000  0.73781000  0.87653000  1.0 -0.0126535393
C  C303  1  0.26219000  0.21997000  0.87653000  1.0 -0.0126535393
C  C304  1  0.73781000  0.78003000  0.87653000  1.0 -0.0126535393
C  C305  1  0.25715000  0.19645000  0.36193000  1.0 -0.1419182442
C  C306  1  0.74285000  0.80355000  0.36193000  1.0 -0.1419182442
C  C307  1  0.80355000  0.25715000  0.36193000  1.0 -0.1419182442
C  C308  1  0.19645000  0.74285000  0.36193000  1.0 -0.1419182442
C  C309  1  0.24285000  0.69645000  0.13807000  1.0 -0.1419182442
C  C310  1  0.75715000  0.30355000  0.13807000  1.0 -0.1419182442
C  C311  1  0.69645000  0.75715000  0.13807000  1.0 -0.1419182442
C  C312  1  0.30355000  0.24285000  0.13807000  1.0 -0.1419182442
C  C313  1  0.74285000  0.80355000  0.63807000  1.0 -0.1419182442
C  C314  1  0.25715000  0.19645000  0.63807000  1.0 -0.1419182442
C  C315  1  0.19645000  0.74285000  0.63807000  1.0 -0.1419182442
C  C316  1  0.80355000  0.25715000  0.63807000  1.0 -0.1419182442
C  C317  1  0.75715000  0.30355000  0.86193000  1.0 -0.1419182442
C  C318  1  0.24285000  0.69645000  0.86193000  1.0 -0.1419182442
C  C319  1  0.30355000  0.24285000  0.86193000  1.0 -0.1419182442
C  C320  1  0.69645000  0.75715000  0.86193000  1.0 -0.1419182442
C  C321  1  0.34408000  0.17809000  0.45250000  1.0 0.5865974994
C  C322  1  0.65592000  0.82191000  0.45250000  1.0 0.5865974994
C  C323  1  0.82191000  0.34408000  0.45250000  1.0 0.5865974994
C  C324  1  0.17809000  0.65592000  0.45250000  1.0 0.5865974994
C  C325  1  0.15592000  0.67809000  0.04750000  1.0 0.5865974994
C  C326  1  0.84408000  0.32191000  0.04750000  1.0 0.5865974994
C  C327  1  0.67809000  0.84408000  0.04750000  1.0 0.5865974994
C  C328  1  0.32191000  0.15592000  0.04750000  1.0 0.5865974994
C  C329  1  0.65592000  0.82191000  0.54750000  1.0 0.5865974994
C  C330  1  0.34408000  0.17809000  0.54750000  1.0 0.5865974994
C  C331  1  0.17809000  0.65592000  0.54750000  1.0 0.5865974994
C  C332  1  0.82191000  0.34408000  0.54750000  1.0 0.5865974994
C  C333  1  0.84408000  0.32191000  0.95250000  1.0 0.5865974994
C  C334  1  0.15592000  0.67809000  0.95250000  1.0 0.5865974994
C  C335  1  0.32191000  0.15592000  0.95250000  1.0 0.5865974994
C  C336  1  0.67809000  0.84408000  0.95250000  1.0 0.5865974994
C  C337  1  0.27949000  0.28878000  0.35990000  1.0 0.5865974994
C  C338  1  0.72051000  0.71122000  0.35990000  1.0 0.5865974994
C  C339  1  0.71122000  0.27949000  0.35990000  1.0 0.5865974994
C  C340  1  0.28878000  0.72051000  0.35990000  1.0 0.5865974994
C  C341  1  0.22051000  0.78878000  0.14010000  1.0 0.5865974994
C  C342  1  0.77949000  0.21122000  0.14010000  1.0 0.5865974994
C  C343  1  0.78878000  0.77949000  0.14010000  1.0 0.5865974994
C  C344  1  0.21122000  0.22051000  0.14010000  1.0 0.5865974994
C  C345  1  0.72051000  0.71122000  0.64010000  1.0 0.5865974994
C  C346  1  0.27949000  0.28878000  0.64010000  1.0 0.5865974994
C  C347  1  0.28878000  0.72051000  0.64010000  1.0 0.5865974994
C  C348  1  0.71122000  0.27949000  0.64010000  1.0 0.5865974994
C  C349  1  0.77949000  0.21122000  0.85990000  1.0 0.5865974994
C  C350  1  0.22051000  0.78878000  0.85990000  1.0 0.5865974994
C  C351  1  0.21122000  0.22051000  0.85990000  1.0 0.5865974994
C  C352  1  0.78878000  0.77949000  0.85990000  1.0 0.5865974994
C  C353  1  0.00000000  0.50000000  0.12966000  1.0 -0.2310727429
C  C354  1  0.50000000  0.00000000  0.12966000  1.0 -0.2310727429
C  C355  1  0.50000000  0.00000000  0.37034000  1.0 -0.2310727429
C  C356  1  0.00000000  0.50000000  0.37034000  1.0 -0.2310727429
C  C357  1  0.00000000  0.50000000  0.87034000  1.0 -0.2310727429
C  C358  1  0.50000000  0.00000000  0.87034000  1.0 -0.2310727429
C  C359  1  0.50000000  0.00000000  0.62966000  1.0 -0.2310727429
C  C360  1  0.00000000  0.50000000  0.62966000  1.0 -0.2310727429
C  C361  1  0.01030000  0.45513000  0.14692000  1.0 0.047316685
C  C362  1  0.98970000  0.54487000  0.14692000  1.0 0.047316685
C  C363  1  0.54487000  0.01030000  0.14692000  1.0 0.047316685
C  C364  1  0.45513000  0.98970000  0.14692000  1.0 0.047316685
C  C365  1  0.48970000  0.95513000  0.35308000  1.0 0.047316685
C  C366  1  0.51030000  0.04487000  0.35308000  1.0 0.047316685
C  C367  1  0.95513000  0.51030000  0.35308000  1.0 0.047316685
C  C368  1  0.04487000  0.48970000  0.35308000  1.0 0.047316685
C  C369  1  0.98970000  0.54487000  0.85308000  1.0 0.047316685
C  C370  1  0.01030000  0.45513000  0.85308000  1.0 0.047316685
C  C371  1  0.45513000  0.98970000  0.85308000  1.0 0.047316685
C  C372  1  0.54487000  0.01030000  0.85308000  1.0 0.047316685
C  C373  1  0.51030000  0.04487000  0.64692000  1.0 0.047316685
C  C374  1  0.48970000  0.95513000  0.64692000  1.0 0.047316685
C  C375  1  0.04487000  0.48970000  0.64692000  1.0 0.047316685
C  C376  1  0.95513000  0.51030000  0.64692000  1.0 0.047316685
C  C377  1  0.02130000  0.45690000  0.18260000  1.0 -0.0395877793
C  C378  1  0.97870000  0.54310000  0.18260000  1.0 -0.0395877793
C  C379  1  0.54310000  0.02130000  0.18260000  1.0 -0.0395877793
C  C380  1  0.45690000  0.97870000  0.18260000  1.0 -0.0395877793
C  C381  1  0.47870000  0.95690000  0.31740000  1.0 -0.0395877793
C  C382  1  0.52130000  0.04310000  0.31740000  1.0 -0.0395877793
C  C383  1  0.95690000  0.52130000  0.31740000  1.0 -0.0395877793
C  C384  1  0.04310000  0.47870000  0.31740000  1.0 -0.0395877793
C  C385  1  0.97870000  0.54310000  0.81740000  1.0 -0.0395877793
C  C386  1  0.02130000  0.45690000  0.81740000  1.0 -0.0395877793
C  C387  1  0.45690000  0.97870000  0.81740000  1.0 -0.0395877793
C  C388  1  0.54310000  0.02130000  0.81740000  1.0 -0.0395877793
C  C389  1  0.52130000  0.04310000  0.68260000  1.0 -0.0395877793
C  C390  1  0.47870000  0.95690000  0.68260000  1.0 -0.0395877793
C  C391  1  0.04310000  0.47870000  0.68260000  1.0 -0.0395877793
C  C392  1  0.95690000  0.52130000  0.68260000  1.0 -0.0395877793
C  C393  1  0.01875000  0.40808000  0.12790000  1.0 0.0692540031
C  C394  1  0.98125000  0.59192000  0.12790000  1.0 0.0692540031
C  C395  1  0.59192000  0.01875000  0.12790000  1.0 0.0692540031
C  C396  1  0.40808000  0.98125000  0.12790000  1.0 0.0692540031
C  C397  1  0.48125000  0.90808000  0.37210000  1.0 0.0692540031
C  C398  1  0.51875000  0.09192000  0.37210000  1.0 0.0692540031
C  C399  1  0.90808000  0.51875000  0.37210000  1.0 0.0692540031
C  C400  1  0.09192000  0.48125000  0.37210000  1.0 0.0692540031
C  C401  1  0.98125000  0.59192000  0.87210000  1.0 0.0692540031
C  C402  1  0.01875000  0.40808000  0.87210000  1.0 0.0692540031
C  C403  1  0.40808000  0.98125000  0.87210000  1.0 0.0692540031
C  C404  1  0.59192000  0.01875000  0.87210000  1.0 0.0692540031
C  C405  1  0.51875000  0.09192000  0.62790000  1.0 0.0692540031
C  C406  1  0.48125000  0.90808000  0.62790000  1.0 0.0692540031
C  C407  1  0.09192000  0.48125000  0.62790000  1.0 0.0692540031
C  C408  1  0.90808000  0.51875000  0.62790000  1.0 0.0692540031
C  C409  1  0.04998000  0.37030000  0.13986000  1.0 -0.1600231392
C  C410  1  0.95002000  0.62970000  0.13986000  1.0 -0.1600231392
C  C411  1  0.62970000  0.04998000  0.13986000  1.0 -0.1600231392
C  C412  1  0.37030000  0.95002000  0.13986000  1.0 -0.1600231392
C  C413  1  0.45002000  0.87030000  0.36014000  1.0 -0.1600231392
C  C414  1  0.54998000  0.12970000  0.36014000  1.0 -0.1600231392
C  C415  1  0.87030000  0.54998000  0.36014000  1.0 -0.1600231392
C  C416  1  0.12970000  0.45002000  0.36014000  1.0 -0.1600231392
C  C417  1  0.95002000  0.62970000  0.86014000  1.0 -0.1600231392
C  C418  1  0.04998000  0.37030000  0.86014000  1.0 -0.1600231392
C  C419  1  0.37030000  0.95002000  0.86014000  1.0 -0.1600231392
C  C420  1  0.62970000  0.04998000  0.86014000  1.0 -0.1600231392
C  C421  1  0.54998000  0.12970000  0.63986000  1.0 -0.1600231392
C  C422  1  0.45002000  0.87030000  0.63986000  1.0 -0.1600231392
C  C423  1  0.12970000  0.45002000  0.63986000  1.0 -0.1600231392
C  C424  1  0.87030000  0.54998000  0.63986000  1.0 -0.1600231392
C  C425  1  0.05544000  0.32531000  0.12236000  1.0 -0.0014453793
C  C426  1  0.94456000  0.67469000  0.12236000  1.0 -0.0014453793
C  C427  1  0.67469000  0.05544000  0.12236000  1.0 -0.0014453793
C  C428  1  0.32531000  0.94456000  0.12236000  1.0 -0.0014453793
C  C429  1  0.44456000  0.82531000  0.37764000  1.0 -0.0014453793
C  C430  1  0.55544000  0.17469000  0.37764000  1.0 -0.0014453793
C  C431  1  0.82531000  0.55544000  0.37764000  1.0 -0.0014453793
C  C432  1  0.17469000  0.44456000  0.37764000  1.0 -0.0014453793
C  C433  1  0.94456000  0.67469000  0.87764000  1.0 -0.0014453793
C  C434  1  0.05544000  0.32531000  0.87764000  1.0 -0.0014453793
C  C435  1  0.32531000  0.94456000  0.87764000  1.0 -0.0014453793
C  C436  1  0.67469000  0.05544000  0.87764000  1.0 -0.0014453793
C  C437  1  0.55544000  0.17469000  0.62236000  1.0 -0.0014453793
C  C438  1  0.44456000  0.82531000  0.62236000  1.0 -0.0014453793
C  C439  1  0.17469000  0.44456000  0.62236000  1.0 -0.0014453793
C  C440  1  0.82531000  0.55544000  0.62236000  1.0 -0.0014453793
C  C441  1  0.03003000  0.31796000  0.09200000  1.0 -0.1003501059
C  C442  1  0.96997000  0.68204000  0.09200000  1.0 -0.1003501059
C  C443  1  0.68204000  0.03003000  0.09200000  1.0 -0.1003501059
C  C444  1  0.31796000  0.96997000  0.09200000  1.0 -0.1003501059
C  C445  1  0.46997000  0.81796000  0.40800000  1.0 -0.1003501059
C  C446  1  0.53003000  0.18204000  0.40800000  1.0 -0.1003501059
C  C447  1  0.81796000  0.53003000  0.40800000  1.0 -0.1003501059
C  C448  1  0.18204000  0.46997000  0.40800000  1.0 -0.1003501059
C  C449  1  0.96997000  0.68204000  0.90800000  1.0 -0.1003501059
C  C450  1  0.03003000  0.31796000  0.90800000  1.0 -0.1003501059
C  C451  1  0.31796000  0.96997000  0.90800000  1.0 -0.1003501059
C  C452  1  0.68204000  0.03003000  0.90800000  1.0 -0.1003501059
C  C453  1  0.53003000  0.18204000  0.59200000  1.0 -0.1003501059
C  C454  1  0.46997000  0.81796000  0.59200000  1.0 -0.1003501059
C  C455  1  0.18204000  0.46997000  0.59200000  1.0 -0.1003501059
C  C456  1  0.81796000  0.53003000  0.59200000  1.0 -0.1003501059
C  C457  1  0.99937000  0.35510000  0.07901000  1.0 -0.0126535393
C  C458  1  0.00063000  0.64490000  0.07901000  1.0 -0.0126535393
C  C459  1  0.64490000  0.99937000  0.07901000  1.0 -0.0126535393
C  C460  1  0.35510000  0.00063000  0.07901000  1.0 -0.0126535393
C  C461  1  0.50063000  0.85510000  0.42099000  1.0 -0.0126535393
C  C462  1  0.49937000  0.14490000  0.42099000  1.0 -0.0126535393
C  C463  1  0.85510000  0.49937000  0.42099000  1.0 -0.0126535393
C  C464  1  0.14490000  0.50063000  0.42099000  1.0 -0.0126535393
C  C465  1  0.00063000  0.64490000  0.92099000  1.0 -0.0126535393
C  C466  1  0.99937000  0.35510000  0.92099000  1.0 -0.0126535393
C  C467  1  0.35510000  0.00063000  0.92099000  1.0 -0.0126535393
C  C468  1  0.64490000  0.99937000  0.92099000  1.0 -0.0126535393
C  C469  1  0.49937000  0.14490000  0.57901000  1.0 -0.0126535393
C  C470  1  0.50063000  0.85510000  0.57901000  1.0 -0.0126535393
C  C471  1  0.14490000  0.50063000  0.57901000  1.0 -0.0126535393
C  C472  1  0.85510000  0.49937000  0.57901000  1.0 -0.0126535393
C  C473  1  0.99412000  0.39985000  0.09709000  1.0 -0.1473104063
C  C474  1  0.00588000  0.60015000  0.09709000  1.0 -0.1473104063
C  C475  1  0.60015000  0.99412000  0.09709000  1.0 -0.1473104063
C  C476  1  0.39985000  0.00588000  0.09709000  1.0 -0.1473104063
C  C477  1  0.50588000  0.89985000  0.40291000  1.0 -0.1473104063
C  C478  1  0.49412000  0.10015000  0.40291000  1.0 -0.1473104063
C  C479  1  0.89985000  0.49412000  0.40291000  1.0 -0.1473104063
C  C480  1  0.10015000  0.50588000  0.40291000  1.0 -0.1473104063
C  C481  1  0.00588000  0.60015000  0.90291000  1.0 -0.1473104063
C  C482  1  0.99412000  0.39985000  0.90291000  1.0 -0.1473104063
C  C483  1  0.39985000  0.00588000  0.90291000  1.0 -0.1473104063
C  C484  1  0.60015000  0.99412000  0.90291000  1.0 -0.1473104063
C  C485  1  0.49412000  0.10015000  0.59709000  1.0 -0.1473104063
C  C486  1  0.50588000  0.89985000  0.59709000  1.0 -0.1473104063
C  C487  1  0.10015000  0.50588000  0.59709000  1.0 -0.1473104063
C  C488  1  0.89985000  0.49412000  0.59709000  1.0 -0.1473104063
C  C489  1  0.08636000  0.28334000  0.13782000  1.0 0.5865974994
C  C490  1  0.91364000  0.71666000  0.13782000  1.0 0.5865974994
C  C491  1  0.71666000  0.08636000  0.13782000  1.0 0.5865974994
C  C492  1  0.28334000  0.91364000  0.13782000  1.0 0.5865974994
C  C493  1  0.41364000  0.78334000  0.36218000  1.0 0.5865974994
C  C494  1  0.58636000  0.21666000  0.36218000  1.0 0.5865974994
C  C495  1  0.78334000  0.58636000  0.36218000  1.0 0.5865974994
C  C496  1  0.21666000  0.41364000  0.36218000  1.0 0.5865974994
C  C497  1  0.91364000  0.71666000  0.86218000  1.0 0.5865974994
C  C498  1  0.08636000  0.28334000  0.86218000  1.0 0.5865974994
C  C499  1  0.28334000  0.91364000  0.86218000  1.0 0.5865974994
C  C500  1  0.71666000  0.08636000  0.86218000  1.0 0.5865974994
C  C501  1  0.58636000  0.21666000  0.63782000  1.0 0.5865974994
C  C502  1  0.41364000  0.78334000  0.63782000  1.0 0.5865974994
C  C503  1  0.21666000  0.41364000  0.63782000  1.0 0.5865974994
C  C504  1  0.78334000  0.58636000  0.63782000  1.0 0.5865974994
C  C505  1  0.96845000  0.34680000  0.04745000  1.0 0.5824079126
C  C506  1  0.03155000  0.65320000  0.04745000  1.0 0.5824079126
C  C507  1  0.65320000  0.96845000  0.04745000  1.0 0.5824079126
C  C508  1  0.34680000  0.03155000  0.04745000  1.0 0.5824079126
C  C509  1  0.53155000  0.84680000  0.45255000  1.0 0.5824079126
C  C510  1  0.46845000  0.15320000  0.45255000  1.0 0.5824079126
C  C511  1  0.84680000  0.46845000  0.45255000  1.0 0.5824079126
C  C512  1  0.15320000  0.53155000  0.45255000  1.0 0.5824079126
C  C513  1  0.03155000  0.65320000  0.95255000  1.0 0.5824079126
C  C514  1  0.96845000  0.34680000  0.95255000  1.0 0.5824079126
C  C515  1  0.34680000  0.03155000  0.95255000  1.0 0.5824079126
C  C516  1  0.65320000  0.96845000  0.95255000  1.0 0.5824079126
C  C517  1  0.46845000  0.15320000  0.54745000  1.0 0.5824079126
C  C518  1  0.53155000  0.84680000  0.54745000  1.0 0.5824079126
C  C519  1  0.15320000  0.53155000  0.54745000  1.0 0.5824079126
C  C520  1  0.84680000  0.46845000  0.54745000  1.0 0.5824079126
C  C521  1  0.19670000  0.30330000  0.25000000  1.0 0.4907450635
C  C522  1  0.80330000  0.69670000  0.25000000  1.0 0.4907450635
C  C523  1  0.69670000  0.19670000  0.25000000  1.0 0.4907450635
C  C524  1  0.30330000  0.80330000  0.25000000  1.0 0.4907450635
C  C525  1  0.80330000  0.69670000  0.75000000  1.0 0.4907450635
C  C526  1  0.19670000  0.30330000  0.75000000  1.0 0.4907450635
C  C527  1  0.30330000  0.80330000  0.75000000  1.0 0.4907450635
C  C528  1  0.69670000  0.19670000  0.75000000  1.0 0.4907450635
C  C529  1  0.01490000  0.50260000  0.19955000  1.0 -0.0212977778
C  C530  1  0.98510000  0.49740000  0.19955000  1.0 -0.0212977778
C  C531  1  0.49740000  0.01490000  0.19955000  1.0 -0.0212977778
C  C532  1  0.50260000  0.98510000  0.19955000  1.0 -0.0212977778
C  C533  1  0.48510000  0.00260000  0.30045000  1.0 -0.0212977778
C  C534  1  0.51490000  0.99740000  0.30045000  1.0 -0.0212977778
C  C535  1  0.00260000  0.51490000  0.30045000  1.0 -0.0212977778
C  C536  1  0.99740000  0.48510000  0.30045000  1.0 -0.0212977778
C  C537  1  0.98510000  0.49740000  0.80045000  1.0 -0.0212977778
C  C538  1  0.01490000  0.50260000  0.80045000  1.0 -0.0212977778
C  C539  1  0.50260000  0.98510000  0.80045000  1.0 -0.0212977778
C  C540  1  0.49740000  0.01490000  0.80045000  1.0 -0.0212977778
C  C541  1  0.51490000  0.99740000  0.69955000  1.0 -0.0212977778
C  C542  1  0.48510000  0.00260000  0.69955000  1.0 -0.0212977778
C  C543  1  0.99740000  0.48510000  0.69955000  1.0 -0.0212977778
C  C544  1  0.00260000  0.51490000  0.69955000  1.0 -0.0212977778
C  C545  1  0.99870000  0.45330000  0.18170000  1.0 -0.0014453793
C  C546  1  0.00130000  0.54670000  0.18170000  1.0 -0.0014453793
C  C547  1  0.54670000  0.99870000  0.18170000  1.0 -0.0014453793
C  C548  1  0.45330000  0.00130000  0.18170000  1.0 -0.0014453793
C  C549  1  0.50130000  0.95330000  0.31830000  1.0 -0.0014453793
C  C550  1  0.49870000  0.04670000  0.31830000  1.0 -0.0014453793
C  C551  1  0.95330000  0.49870000  0.31830000  1.0 -0.0014453793
C  C552  1  0.04670000  0.50130000  0.31830000  1.0 -0.0014453793
C  C553  1  0.00130000  0.54670000  0.81830000  1.0 -0.0014453793
C  C554  1  0.99870000  0.45330000  0.81830000  1.0 -0.0014453793
C  C555  1  0.45330000  0.00130000  0.81830000  1.0 -0.0014453793
C  C556  1  0.54670000  0.99870000  0.81830000  1.0 -0.0014453793
C  C557  1  0.49870000  0.04670000  0.68170000  1.0 -0.0014453793
C  C558  1  0.50130000  0.95330000  0.68170000  1.0 -0.0014453793
C  C559  1  0.04670000  0.50130000  0.68170000  1.0 -0.0014453793
C  C560  1  0.95330000  0.49870000  0.68170000  1.0 -0.0014453793
O  O1  1  0.13961000  0.12923000  0.17317000  1.0 -0.5030489208
O  O2  1  0.86039000  0.87077000  0.17317000  1.0 -0.5030489208
O  O3  1  0.87077000  0.13961000  0.17317000  1.0 -0.5030489208
O  O4  1  0.12923000  0.86039000  0.17317000  1.0 -0.5030489208
O  O5  1  0.36039000  0.62923000  0.32683000  1.0 -0.5030489208
O  O6  1  0.63961000  0.37077000  0.32683000  1.0 -0.5030489208
O  O7  1  0.62923000  0.63961000  0.32683000  1.0 -0.5030489208
O  O8  1  0.37077000  0.36039000  0.32683000  1.0 -0.5030489208
O  O9  1  0.86039000  0.87077000  0.82683000  1.0 -0.5030489208
O  O10  1  0.13961000  0.12923000  0.82683000  1.0 -0.5030489208
O  O11  1  0.12923000  0.86039000  0.82683000  1.0 -0.5030489208
O  O12  1  0.87077000  0.13961000  0.82683000  1.0 -0.5030489208
O  O13  1  0.63961000  0.37077000  0.67317000  1.0 -0.5030489208
O  O14  1  0.36039000  0.62923000  0.67317000  1.0 -0.5030489208
O  O15  1  0.37077000  0.36039000  0.67317000  1.0 -0.5030489208
O  O16  1  0.62923000  0.63961000  0.67317000  1.0 -0.5030489208
O  O17  1  0.16787000  0.17929000  0.21432000  1.0 -0.5287246335
O  O18  1  0.83213000  0.82071000  0.21432000  1.0 -0.5287246335
O  O19  1  0.82071000  0.16787000  0.21432000  1.0 -0.5287246335
O  O20  1  0.17929000  0.83213000  0.21432000  1.0 -0.5287246335
O  O21  1  0.33213000  0.67929000  0.28568000  1.0 -0.5287246335
O  O22  1  0.66787000  0.32071000  0.28568000  1.0 -0.5287246335
O  O23  1  0.67929000  0.66787000  0.28568000  1.0 -0.5287246335
O  O24  1  0.32071000  0.33213000  0.28568000  1.0 -0.5287246335
O  O25  1  0.83213000  0.82071000  0.78568000  1.0 -0.5287246335
O  O26  1  0.16787000  0.17929000  0.78568000  1.0 -0.5287246335
O  O27  1  0.17929000  0.83213000  0.78568000  1.0 -0.5287246335
O  O28  1  0.82071000  0.16787000  0.78568000  1.0 -0.5287246335
O  O29  1  0.66787000  0.32071000  0.71432000  1.0 -0.5287246335
O  O30  1  0.33213000  0.67929000  0.71432000  1.0 -0.5287246335
O  O31  1  0.32071000  0.33213000  0.71432000  1.0 -0.5287246335
O  O32  1  0.67929000  0.66787000  0.71432000  1.0 -0.5287246335
O  O33  1  0.18111000  0.95023000  0.17401000  1.0 -0.5207423702
O  O34  1  0.81889000  0.04977000  0.17401000  1.0 -0.5207423702
O  O35  1  0.04977000  0.18111000  0.17401000  1.0 -0.5207423702
O  O36  1  0.95023000  0.81889000  0.17401000  1.0 -0.5207423702
O  O37  1  0.31889000  0.45023000  0.32599000  1.0 -0.5207423702
O  O38  1  0.68111000  0.54977000  0.32599000  1.0 -0.5207423702
O  O39  1  0.45023000  0.68111000  0.32599000  1.0 -0.5207423702
O  O40  1  0.54977000  0.31889000  0.32599000  1.0 -0.5207423702
O  O41  1  0.81889000  0.04977000  0.82599000  1.0 -0.5207423702
O  O42  1  0.18111000  0.95023000  0.82599000  1.0 -0.5207423702
O  O43  1  0.95023000  0.81889000  0.82599000  1.0 -0.5207423702
O  O44  1  0.04977000  0.18111000  0.82599000  1.0 -0.5207423702
O  O45  1  0.68111000  0.54977000  0.67401000  1.0 -0.5207423702
O  O46  1  0.31889000  0.45023000  0.67401000  1.0 -0.5207423702
O  O47  1  0.54977000  0.31889000  0.67401000  1.0 -0.5207423702
O  O48  1  0.45023000  0.68111000  0.67401000  1.0 -0.5207423702
O  O49  1  0.23040000  0.92115000  0.21553000  1.0 -0.5030489208
O  O50  1  0.76960000  0.07885000  0.21553000  1.0 -0.5030489208
O  O51  1  0.07885000  0.23040000  0.21553000  1.0 -0.5030489208
O  O52  1  0.92115000  0.76960000  0.21553000  1.0 -0.5030489208
O  O53  1  0.26960000  0.42115000  0.28447000  1.0 -0.5030489208
O  O54  1  0.73040000  0.57885000  0.28447000  1.0 -0.5030489208
O  O55  1  0.42115000  0.73040000  0.28447000  1.0 -0.5030489208
O  O56  1  0.57885000  0.26960000  0.28447000  1.0 -0.5030489208
O  O57  1  0.76960000  0.07885000  0.78447000  1.0 -0.5030489208
O  O58  1  0.23040000  0.92115000  0.78447000  1.0 -0.5030489208
O  O59  1  0.92115000  0.76960000  0.78447000  1.0 -0.5030489208
O  O60  1  0.07885000  0.23040000  0.78447000  1.0 -0.5030489208
O  O61  1  0.73040000  0.57885000  0.71553000  1.0 -0.5030489208
O  O62  1  0.26960000  0.42115000  0.71553000  1.0 -0.5030489208
O  O63  1  0.57885000  0.26960000  0.71553000  1.0 -0.5030489208
O  O64  1  0.42115000  0.73040000  0.71553000  1.0 -0.5030489208
O  O65  1  0.36593000  0.21595000  0.46415000  1.0 -0.5128896342
O  O66  1  0.63407000  0.78405000  0.46415000  1.0 -0.5128896342
O  O67  1  0.78405000  0.36593000  0.46415000  1.0 -0.5128896342
O  O68  1  0.21595000  0.63407000  0.46415000  1.0 -0.5128896342
O  O69  1  0.13407000  0.71595000  0.03585000  1.0 -0.5128896342
O  O70  1  0.86593000  0.28405000  0.03585000  1.0 -0.5128896342
O  O71  1  0.71595000  0.86593000  0.03585000  1.0 -0.5128896342
O  O72  1  0.28405000  0.13407000  0.03585000  1.0 -0.5128896342
O  O73  1  0.63407000  0.78405000  0.53585000  1.0 -0.5128896342
O  O74  1  0.36593000  0.21595000  0.53585000  1.0 -0.5128896342
O  O75  1  0.21595000  0.63407000  0.53585000  1.0 -0.5128896342
O  O76  1  0.78405000  0.36593000  0.53585000  1.0 -0.5128896342
O  O77  1  0.86593000  0.28405000  0.96415000  1.0 -0.5128896342
O  O78  1  0.13407000  0.71595000  0.96415000  1.0 -0.5128896342
O  O79  1  0.28405000  0.13407000  0.96415000  1.0 -0.5128896342
O  O80  1  0.71595000  0.86593000  0.96415000  1.0 -0.5128896342
O  O81  1  0.34680000  0.13420000  0.46444000  1.0 -0.5207423702
O  O82  1  0.65320000  0.86580000  0.46444000  1.0 -0.5207423702
O  O83  1  0.86580000  0.34680000  0.46444000  1.0 -0.5207423702
O  O84  1  0.13420000  0.65320000  0.46444000  1.0 -0.5207423702
O  O85  1  0.15320000  0.63420000  0.03556000  1.0 -0.5207423702
O  O86  1  0.84680000  0.36580000  0.03556000  1.0 -0.5207423702
O  O87  1  0.63420000  0.84680000  0.03556000  1.0 -0.5207423702
O  O88  1  0.36580000  0.15320000  0.03556000  1.0 -0.5207423702
O  O89  1  0.65320000  0.86580000  0.53556000  1.0 -0.5207423702
O  O90  1  0.34680000  0.13420000  0.53556000  1.0 -0.5207423702
O  O91  1  0.13420000  0.65320000  0.53556000  1.0 -0.5207423702
O  O92  1  0.86580000  0.34680000  0.53556000  1.0 -0.5207423702
O  O93  1  0.84680000  0.36580000  0.96444000  1.0 -0.5207423702
O  O94  1  0.15320000  0.63420000  0.96444000  1.0 -0.5207423702
O  O95  1  0.36580000  0.15320000  0.96444000  1.0 -0.5207423702
O  O96  1  0.63420000  0.84680000  0.96444000  1.0 -0.5207423702
O  O97  1  0.30412000  0.32264000  0.37434000  1.0 -0.5128896342
O  O98  1  0.69588000  0.67736000  0.37434000  1.0 -0.5128896342
O  O99  1  0.67736000  0.30412000  0.37434000  1.0 -0.5128896342
O  O100  1  0.32264000  0.69588000  0.37434000  1.0 -0.5128896342
O  O101  1  0.19588000  0.82264000  0.12566000  1.0 -0.5128896342
O  O102  1  0.80412000  0.17736000  0.12566000  1.0 -0.5128896342
O  O103  1  0.82264000  0.80412000  0.12566000  1.0 -0.5128896342
O  O104  1  0.17736000  0.19588000  0.12566000  1.0 -0.5128896342
O  O105  1  0.69588000  0.67736000  0.62566000  1.0 -0.5128896342
O  O106  1  0.30412000  0.32264000  0.62566000  1.0 -0.5128896342
O  O107  1  0.32264000  0.69588000  0.62566000  1.0 -0.5128896342
O  O108  1  0.67736000  0.30412000  0.62566000  1.0 -0.5128896342
O  O109  1  0.80412000  0.17736000  0.87434000  1.0 -0.5128896342
O  O110  1  0.19588000  0.82264000  0.87434000  1.0 -0.5128896342
O  O111  1  0.17736000  0.19588000  0.87434000  1.0 -0.5128896342
O  O112  1  0.82264000  0.80412000  0.87434000  1.0 -0.5128896342
O  O113  1  0.25406000  0.29343000  0.33281000  1.0 -0.5287246335
O  O114  1  0.74594000  0.70657000  0.33281000  1.0 -0.5287246335
O  O115  1  0.70657000  0.25406000  0.33281000  1.0 -0.5287246335
O  O116  1  0.29343000  0.74594000  0.33281000  1.0 -0.5287246335
O  O117  1  0.24594000  0.79343000  0.16719000  1.0 -0.5287246335
O  O118  1  0.75406000  0.20657000  0.16719000  1.0 -0.5287246335
O  O119  1  0.79343000  0.75406000  0.16719000  1.0 -0.5287246335
O  O120  1  0.20657000  0.24594000  0.16719000  1.0 -0.5287246335
O  O121  1  0.74594000  0.70657000  0.66719000  1.0 -0.5287246335
O  O122  1  0.25406000  0.29343000  0.66719000  1.0 -0.5287246335
O  O123  1  0.29343000  0.74594000  0.66719000  1.0 -0.5287246335
O  O124  1  0.70657000  0.25406000  0.66719000  1.0 -0.5287246335
O  O125  1  0.75406000  0.20657000  0.83281000  1.0 -0.5287246335
O  O126  1  0.24594000  0.79343000  0.83281000  1.0 -0.5287246335
O  O127  1  0.20657000  0.24594000  0.83281000  1.0 -0.5287246335
O  O128  1  0.79343000  0.75406000  0.83281000  1.0 -0.5287246335
O  O129  1  0.08386000  0.24164000  0.12281000  1.0 -0.5128896342
O  O130  1  0.91614000  0.75836000  0.12281000  1.0 -0.5128896342
O  O131  1  0.75836000  0.08386000  0.12281000  1.0 -0.5128896342
O  O132  1  0.24164000  0.91614000  0.12281000  1.0 -0.5128896342
O  O133  1  0.41614000  0.74164000  0.37719000  1.0 -0.5128896342
O  O134  1  0.58386000  0.25836000  0.37719000  1.0 -0.5128896342
O  O135  1  0.74164000  0.58386000  0.37719000  1.0 -0.5128896342
O  O136  1  0.25836000  0.41614000  0.37719000  1.0 -0.5128896342
O  O137  1  0.91614000  0.75836000  0.87719000  1.0 -0.5128896342
O  O138  1  0.08386000  0.24164000  0.87719000  1.0 -0.5128896342
O  O139  1  0.24164000  0.91614000  0.87719000  1.0 -0.5128896342
O  O140  1  0.75836000  0.08386000  0.87719000  1.0 -0.5128896342
O  O141  1  0.58386000  0.25836000  0.62281000  1.0 -0.5128896342
O  O142  1  0.41614000  0.74164000  0.62281000  1.0 -0.5128896342
O  O143  1  0.25836000  0.41614000  0.62281000  1.0 -0.5128896342
O  O144  1  0.74164000  0.58386000  0.62281000  1.0 -0.5128896342
O  O145  1  0.11096000  0.29297000  0.16396000  1.0 -0.5128896342
O  O146  1  0.88904000  0.70703000  0.16396000  1.0 -0.5128896342
O  O147  1  0.70703000  0.11096000  0.16396000  1.0 -0.5128896342
O  O148  1  0.29297000  0.88904000  0.16396000  1.0 -0.5128896342
O  O149  1  0.38904000  0.79297000  0.33604000  1.0 -0.5128896342
O  O150  1  0.61096000  0.20703000  0.33604000  1.0 -0.5128896342
O  O151  1  0.79297000  0.61096000  0.33604000  1.0 -0.5128896342
O  O152  1  0.20703000  0.38904000  0.33604000  1.0 -0.5128896342
O  O153  1  0.88904000  0.70703000  0.83604000  1.0 -0.5128896342
O  O154  1  0.11096000  0.29297000  0.83604000  1.0 -0.5128896342
O  O155  1  0.29297000  0.88904000  0.83604000  1.0 -0.5128896342
O  O156  1  0.70703000  0.11096000  0.83604000  1.0 -0.5128896342
O  O157  1  0.61096000  0.20703000  0.66396000  1.0 -0.5128896342
O  O158  1  0.38904000  0.79297000  0.66396000  1.0 -0.5128896342
O  O159  1  0.20703000  0.38904000  0.66396000  1.0 -0.5128896342
O  O160  1  0.79297000  0.61096000  0.66396000  1.0 -0.5128896342
O  O161  1  0.96625000  0.30362000  0.03597000  1.0 -0.5030489208
O  O162  1  0.03375000  0.69638000  0.03597000  1.0 -0.5030489208
O  O163  1  0.69638000  0.96625000  0.03597000  1.0 -0.5030489208
O  O164  1  0.30362000  0.03375000  0.03597000  1.0 -0.5030489208
O  O165  1  0.53375000  0.80362000  0.46403000  1.0 -0.5030489208
O  O166  1  0.46625000  0.19638000  0.46403000  1.0 -0.5030489208
O  O167  1  0.80362000  0.46625000  0.46403000  1.0 -0.5030489208
O  O168  1  0.19638000  0.53375000  0.46403000  1.0 -0.5030489208
O  O169  1  0.03375000  0.69638000  0.96403000  1.0 -0.5030489208
O  O170  1  0.96625000  0.30362000  0.96403000  1.0 -0.5030489208
O  O171  1  0.30362000  0.03375000  0.96403000  1.0 -0.5030489208
O  O172  1  0.69638000  0.96625000  0.96403000  1.0 -0.5030489208
O  O173  1  0.46625000  0.19638000  0.53597000  1.0 -0.5030489208
O  O174  1  0.53375000  0.80362000  0.53597000  1.0 -0.5030489208
O  O175  1  0.19638000  0.53375000  0.53597000  1.0 -0.5030489208
O  O176  1  0.80362000  0.46625000  0.53597000  1.0 -0.5030489208
O  O177  1  0.94651000  0.38554000  0.03578000  1.0 -0.5391045104
O  O178  1  0.05349000  0.61446000  0.03578000  1.0 -0.5391045104
O  O179  1  0.61446000  0.94651000  0.03578000  1.0 -0.5391045104
O  O180  1  0.38554000  0.05349000  0.03578000  1.0 -0.5391045104
O  O181  1  0.55349000  0.88554000  0.46422000  1.0 -0.5391045104
O  O182  1  0.44651000  0.11446000  0.46422000  1.0 -0.5391045104
O  O183  1  0.88554000  0.44651000  0.46422000  1.0 -0.5391045104
O  O184  1  0.11446000  0.55349000  0.46422000  1.0 -0.5391045104
O  O185  1  0.05349000  0.61446000  0.96422000  1.0 -0.5391045104
O  O186  1  0.94651000  0.38554000  0.96422000  1.0 -0.5391045104
O  O187  1  0.38554000  0.05349000  0.96422000  1.0 -0.5391045104
O  O188  1  0.61446000  0.94651000  0.96422000  1.0 -0.5391045104
O  O189  1  0.44651000  0.11446000  0.53578000  1.0 -0.5391045104
O  O190  1  0.55349000  0.88554000  0.53578000  1.0 -0.5391045104
O  O191  1  0.11446000  0.55349000  0.53578000  1.0 -0.5391045104
O  O192  1  0.88554000  0.44651000  0.53578000  1.0 -0.5391045104
O  O193  1  0.16274000  0.29618000  0.22957000  1.0 -0.4406137693
O  O194  1  0.83726000  0.70382000  0.22957000  1.0 -0.4406137693
O  O195  1  0.70382000  0.16274000  0.22957000  1.0 -0.4406137693
O  O196  1  0.29618000  0.83726000  0.22957000  1.0 -0.4406137693
O  O197  1  0.33726000  0.79618000  0.27043000  1.0 -0.4406137693
O  O198  1  0.66274000  0.20382000  0.27043000  1.0 -0.4406137693
O  O199  1  0.79618000  0.66274000  0.27043000  1.0 -0.4406137693
O  O200  1  0.20382000  0.33726000  0.27043000  1.0 -0.4406137693
O  O201  1  0.83726000  0.70382000  0.77043000  1.0 -0.4406137693
O  O202  1  0.16274000  0.29618000  0.77043000  1.0 -0.4406137693
O  O203  1  0.29618000  0.83726000  0.77043000  1.0 -0.4406137693
O  O204  1  0.70382000  0.16274000  0.77043000  1.0 -0.4406137693
O  O205  1  0.66274000  0.20382000  0.72957000  1.0 -0.4406137693
O  O206  1  0.33726000  0.79618000  0.72957000  1.0 -0.4406137693
O  O207  1  0.20382000  0.33726000  0.72957000  1.0 -0.4406137693
O  O208  1  0.79618000  0.66274000  0.72957000  1.0 -0.4406137693
