# DDEC6 charges by PACMAN v1.1 (https://github.com/mtap-research/PACMAN-charge/)
data_ZUTBIB_FSR_pacman
_symmetry_space_group_name_H-M   'P 1'
_cell_length_a   9.31280000
_cell_length_b   9.32270000
_cell_length_c   9.34970000
_cell_angle_alpha   103.17000000
_cell_angle_beta   93.60000000
_cell_angle_gamma   90.14000000
_symmetry_Int_Tables_number   1
_chemical_formula_structural   Ga3P3O12F
_chemical_formula_sum   'Ga6 P6 O24 F2'
_cell_volume   788.71797685
_cell_formula_units_Z   2
loop_
 _symmetry_equiv_pos_site_id
 _symmetry_equiv_pos_as_xyz
  1  'x, y, z'
loop_
 _atom_site_type_symbol
 _atom_site_label
 _atom_site_symmetry_multiplicity
 _atom_site_fract_x
 _atom_site_fract_y
 _atom_site_fract_z
 _atom_site_occupancy
 _atom_site_charge
Ga  Ga1  1  0.43464000  0.13698000  0.58999000  1.0 1.4331776233
Ga  Ga2  1  0.56536000  0.86302000  0.41001000  1.0 1.4331776233
Ga  Ga3  1  0.84181000  0.37514000  0.57661000  1.0 1.5439815255
Ga  Ga4  1  0.15819000  0.62486000  0.42339000  1.0 1.5521516136
Ga  Ga5  1  0.61302000  0.39625000  0.16493000  1.0 1.5521516136
Ga  Ga6  1  0.38698000  0.60375000  0.83507000  1.0 1.5521516136
P  P1  1  0.35546000  0.83302000  0.64834000  1.0 1.5190634461
P  P2  1  0.64454000  0.16698000  0.35166000  1.0 1.5190634461
P  P3  1  0.18078000  0.37569000  0.59385000  1.0 1.508118126
P  P4  1  0.81922000  0.62431000  0.40615000  1.0 1.5025286011
P  P5  1  0.62255000  0.37697000  0.82798000  1.0 1.5025286011
P  P6  1  0.37745000  0.62303000  0.17202000  1.0 1.5025286011
O  O1  1  0.38770000  0.78460000  0.79470000  1.0 -0.6781325507
O  O2  1  0.61230000  0.21540000  0.20530000  1.0 -0.6781325507
O  O3  1  0.46330000  0.76470000  0.53690000  1.0 -0.7496587305
O  O4  1  0.53670000  0.23530000  0.46310000  1.0 -0.7496587305
O  O5  1  0.20370000  0.76980000  0.58620000  1.0 -0.7292531846
O  O6  1  0.79630000  0.23020000  0.41380000  1.0 -0.7292531846
O  O7  1  0.34960000  0.99960000  0.68840000  1.0 -0.6781325507
O  O8  1  0.65040000  0.00040000  0.31160000  1.0 -0.6781325507
O  O9  1  0.25950000  0.23310000  0.56380000  1.0 -0.6781325507
O  O10  1  0.74050000  0.76690000  0.43620000  1.0 -0.6781325507
O  O11  1  0.17520000  0.44090000  0.45640000  1.0 -0.7496587305
O  O12  1  0.82480000  0.55910000  0.54360000  1.0 -0.7496587305
O  O13  1  0.02730000  0.34340000  0.62890000  1.0 -0.6899090676
O  O14  1  0.97270000  0.65660000  0.37110000  1.0 -0.6899090676
O  O15  1  0.24590000  0.48820000  0.72700000  1.0 -0.7496587305
O  O16  1  0.75410000  0.51180000  0.27300000  1.0 -0.7496587305
O  O17  1  0.50340000  0.26550000  0.77070000  1.0 -0.7292531846
O  O18  1  0.49660000  0.73450000  0.22930000  1.0 -0.7292531846
O  O19  1  0.75450000  0.35360000  0.73740000  1.0 -0.6952874331
O  O20  1  0.24550000  0.64640000  0.26260000  1.0 -0.6952874331
O  O21  1  0.56700000  0.53260000  0.83550000  1.0 -0.7375405101
O  O22  1  0.43300000  0.46740000  0.16450000  1.0 -0.7375405101
O  O23  1  0.67870000  0.36410000  0.98140000  1.0 -0.6899090676
O  O24  1  0.32130000  0.63590000  0.01860000  1.0 -0.6899090676
F  F1  1  0.39000000  0.98300000  0.40930000  1.0 -0.5080136327
F  F2  1  0.61000000  0.01700000  0.59070000  1.0 -0.5035562186
